version 3
run General-0-20250425-09:39:33-849
attr configname General
attr datetime 20250425-09:39:33
attr datetimef 20250425-093933
attr experiment General
attr inifile omnetpp.ini
attr iterationvars ""
attr iterationvarsd ""
attr iterationvarsf ""
attr measurement ""
attr network simpleTsn
attr processid 849
attr repetition 0
attr replication #0
attr resultdir results
attr runnumber 0
attr seedset 0
config image-path ../../../inet/images
config sim-time-limit 6s
config description "General configuration"
config network simpleTsn
config **.displayGateSchedules false
config **.gateFilter "\"**.eth[1].**\""
config **.gateScheduleVisualizer.height 16
config **.gateScheduleVisualizer.placementHint "\"top\""
config *.scenarioManager.script "xmldoc(\"scenario.xml\")"
config *.histogramContainer.histograms "{Uplink: \"../../../deterministic6g_data/PD-Wireless-5G-1/s1-UL_wall.xml\", Downlink: \"../../../deterministic6g_data/PD-Wireless-5G-1/s10-DL_wall.xml\"}"
config *.detCom.delayConfig "xmldoc(\"delays_example.xml\")"
config *.device1.hasOutgoingStreams true
config *.device2.hasOutgoingStreams true
config *.device1.numApps 1
config *.device1.app[0].typename SimpleUdpSourceApp
config *.device1.app[0].io.destAddress "\"device2\""
config *.device1.app[0].io.destPort 1001
config *.device1.app[0].source.packetLength "1000B - 54B"
config *.device1.app[0].source.productionInterval 10ms
config *.device1.app[0].source.initialProductionOffset 1s
config *.device2.numApps 1
config *.device2.app[0].typename SimpleUdpSinkApp
config *.device2.app[0].io.localPort 1001

par simpleTsn.device1.ethg$o[0].channel typename "\"inet.node.ethernet.EthernetLink\""
par simpleTsn.device1.ethg$o[0].channel disabled false
attr mutable ""
par simpleTsn.device1.ethg$o[0].channel delay 5e-08s
attr mutable ""
attr unit s
par simpleTsn.device1.ethg$o[0].channel datarate 0bps
attr mutable ""
attr unit bps
par simpleTsn.device1.ethg$o[0].channel ber 0
attr mutable ""
par simpleTsn.device1.ethg$o[0].channel per 0
attr mutable ""
par simpleTsn.device1.ethg$o[0].channel length 10m
attr unit m
par simpleTsn.detCom.dsttg$o[0].channel typename "\"inet.node.ethernet.EthernetLink\""
par simpleTsn.detCom.dsttg$o[0].channel disabled false
attr mutable ""
par simpleTsn.detCom.dsttg$o[0].channel delay 5e-08s
attr mutable ""
attr unit s
par simpleTsn.detCom.dsttg$o[0].channel datarate 0bps
attr mutable ""
attr unit bps
par simpleTsn.detCom.dsttg$o[0].channel ber 0
attr mutable ""
par simpleTsn.detCom.dsttg$o[0].channel per 0
attr mutable ""
par simpleTsn.detCom.dsttg$o[0].channel length 10m
attr unit m
par simpleTsn.detCom.nwttg$o.channel typename "\"inet.node.ethernet.EthernetLink\""
par simpleTsn.detCom.nwttg$o.channel disabled false
attr mutable ""
par simpleTsn.detCom.nwttg$o.channel delay 5e-08s
attr mutable ""
attr unit s
par simpleTsn.detCom.nwttg$o.channel datarate 0bps
attr mutable ""
attr unit bps
par simpleTsn.detCom.nwttg$o.channel ber 0
attr mutable ""
par simpleTsn.detCom.nwttg$o.channel per 0
attr mutable ""
par simpleTsn.detCom.nwttg$o.channel length 10m
attr unit m
par simpleTsn.bridge1.ethg$o[0].channel typename "\"inet.node.ethernet.EthernetLink\""
par simpleTsn.bridge1.ethg$o[0].channel disabled false
attr mutable ""
par simpleTsn.bridge1.ethg$o[0].channel delay 5e-08s
attr mutable ""
attr unit s
par simpleTsn.bridge1.ethg$o[0].channel datarate 0bps
attr mutable ""
attr unit bps
par simpleTsn.bridge1.ethg$o[0].channel ber 0
attr mutable ""
par simpleTsn.bridge1.ethg$o[0].channel per 0
attr mutable ""
par simpleTsn.bridge1.ethg$o[0].channel length 10m
attr unit m
par simpleTsn.bridge1.ethg$o[1].channel typename "\"inet.node.ethernet.EthernetLink\""
par simpleTsn.bridge1.ethg$o[1].channel disabled false
attr mutable ""
par simpleTsn.bridge1.ethg$o[1].channel delay 5e-08s
attr mutable ""
attr unit s
par simpleTsn.bridge1.ethg$o[1].channel datarate 0bps
attr mutable ""
attr unit bps
par simpleTsn.bridge1.ethg$o[1].channel ber 0
attr mutable ""
par simpleTsn.bridge1.ethg$o[1].channel per 0
attr mutable ""
par simpleTsn.bridge1.ethg$o[1].channel length 10m
attr unit m
par simpleTsn.bridge2.ethg$o[0].channel typename "\"inet.node.ethernet.EthernetLink\""
par simpleTsn.bridge2.ethg$o[0].channel disabled false
attr mutable ""
par simpleTsn.bridge2.ethg$o[0].channel delay 5e-08s
attr mutable ""
attr unit s
par simpleTsn.bridge2.ethg$o[0].channel datarate 0bps
attr mutable ""
attr unit bps
par simpleTsn.bridge2.ethg$o[0].channel ber 0
attr mutable ""
par simpleTsn.bridge2.ethg$o[0].channel per 0
attr mutable ""
par simpleTsn.bridge2.ethg$o[0].channel length 10m
attr unit m
par simpleTsn.bridge2.ethg$o[1].channel typename "\"inet.node.ethernet.EthernetLink\""
par simpleTsn.bridge2.ethg$o[1].channel disabled false
attr mutable ""
par simpleTsn.bridge2.ethg$o[1].channel delay 5e-08s
attr mutable ""
attr unit s
par simpleTsn.bridge2.ethg$o[1].channel datarate 0bps
attr mutable ""
attr unit bps
par simpleTsn.bridge2.ethg$o[1].channel ber 0
attr mutable ""
par simpleTsn.bridge2.ethg$o[1].channel per 0
attr mutable ""
par simpleTsn.bridge2.ethg$o[1].channel length 10m
attr unit m
par simpleTsn.device2.ethg$o[0].channel typename "\"inet.node.ethernet.EthernetLink\""
par simpleTsn.device2.ethg$o[0].channel disabled false
attr mutable ""
par simpleTsn.device2.ethg$o[0].channel delay 5e-08s
attr mutable ""
attr unit s
par simpleTsn.device2.ethg$o[0].channel datarate 0bps
attr mutable ""
attr unit bps
par simpleTsn.device2.ethg$o[0].channel ber 0
attr mutable ""
par simpleTsn.device2.ethg$o[0].channel per 0
attr mutable ""
par simpleTsn.device2.ethg$o[0].channel length 10m
attr unit m
par simpleTsn.visualizer.sceneVisualizer typename "\"inet.visualizer.canvas.scene.SceneCanvasVisualizer\""
par simpleTsn.visualizer.sceneVisualizer visualizationTargetModule "\"^.^\""
par simpleTsn.visualizer.sceneVisualizer visualizationSubjectModule "\"^.^\""
par simpleTsn.visualizer.sceneVisualizer tags "\"\""
par simpleTsn.visualizer.sceneVisualizer physicalEnvironmentModule "\"physicalEnvironment\""
par simpleTsn.visualizer.sceneVisualizer networkNodeVisualizerModule "\"^.networkNodeVisualizer\""
par simpleTsn.visualizer.sceneVisualizer axisLength "nan m"
attr mutable ""
attr unit m
par simpleTsn.visualizer.sceneVisualizer animationSpeed 0
par simpleTsn.visualizer.sceneVisualizer sceneMinX "nan m"
attr unit m
par simpleTsn.visualizer.sceneVisualizer sceneMinY "nan m"
attr unit m
par simpleTsn.visualizer.sceneVisualizer sceneMinZ "nan m"
attr unit m
par simpleTsn.visualizer.sceneVisualizer sceneMaxX "nan m"
attr unit m
par simpleTsn.visualizer.sceneVisualizer sceneMaxY "nan m"
attr unit m
par simpleTsn.visualizer.sceneVisualizer sceneMaxZ "nan m"
attr unit m
par simpleTsn.visualizer.sceneVisualizer zIndex 0
par simpleTsn.visualizer.sceneVisualizer viewAngle "\"x right y down z out\""
attr mutable ""
par simpleTsn.visualizer.sceneVisualizer viewScale "\"1 1\""
attr mutable ""
par simpleTsn.visualizer.sceneVisualizer viewTranslation "\"0 0\""
attr mutable ""
par simpleTsn.visualizer.sceneVisualizer descriptionFigure "\"\""
par simpleTsn.visualizer.physicalEnvironmentVisualizer typename "\"inet.visualizer.canvas.environment.PhysicalEnvironmentCanvasVisualizer\""
par simpleTsn.visualizer.physicalEnvironmentVisualizer visualizationTargetModule "\"^.^\""
par simpleTsn.visualizer.physicalEnvironmentVisualizer visualizationSubjectModule "\"^.^\""
par simpleTsn.visualizer.physicalEnvironmentVisualizer tags "\"\""
par simpleTsn.visualizer.physicalEnvironmentVisualizer physicalEnvironmentModule "\"physicalEnvironment\""
par simpleTsn.visualizer.physicalEnvironmentVisualizer displayObjects true
par simpleTsn.visualizer.physicalEnvironmentVisualizer zIndex 0
par simpleTsn.visualizer.networkNodeVisualizer typename "\"inet.visualizer.canvas.scene.NetworkNodeCanvasVisualizer\""
par simpleTsn.visualizer.networkNodeVisualizer visualizationTargetModule "\"^.^\""
par simpleTsn.visualizer.networkNodeVisualizer visualizationSubjectModule "\"^.^\""
par simpleTsn.visualizer.networkNodeVisualizer tags "\"\""
par simpleTsn.visualizer.networkNodeVisualizer nodeFilter "\"*\""
attr mutable ""
par simpleTsn.visualizer.networkNodeVisualizer annotationSpacing 4
par simpleTsn.visualizer.networkNodeVisualizer placementPenalty 10
par simpleTsn.visualizer.networkNodeVisualizer zIndex 0
par simpleTsn.visualizer.networkConnectionVisualizer typename "\"inet.visualizer.canvas.scene.NetworkConnectionCanvasVisualizer\""
par simpleTsn.visualizer.networkConnectionVisualizer visualizationTargetModule "\"^.^\""
par simpleTsn.visualizer.networkConnectionVisualizer visualizationSubjectModule "\"^.^\""
par simpleTsn.visualizer.networkConnectionVisualizer tags "\"\""
par simpleTsn.visualizer.networkConnectionVisualizer displayNetworkConnections true
par simpleTsn.visualizer.networkConnectionVisualizer nodeFilter "\"\""
attr mutable ""
par simpleTsn.visualizer.networkConnectionVisualizer lineColor "\"black\""
par simpleTsn.visualizer.networkConnectionVisualizer lineStyle "\"solid\""
par simpleTsn.visualizer.networkConnectionVisualizer lineWidth 1
par simpleTsn.visualizer.networkConnectionVisualizer zIndex 0
par simpleTsn.visualizer.mobilityVisualizer typename "\"inet.visualizer.canvas.mobility.MobilityCanvasVisualizer\""
par simpleTsn.visualizer.mobilityVisualizer visualizationTargetModule "\"^.^\""
par simpleTsn.visualizer.mobilityVisualizer visualizationSubjectModule "\"^.^\""
par simpleTsn.visualizer.mobilityVisualizer tags "\"\""
par simpleTsn.visualizer.mobilityVisualizer networkNodeVisualizerModule "\"^.networkNodeVisualizer\""
par simpleTsn.visualizer.mobilityVisualizer displayMobility true
par simpleTsn.visualizer.mobilityVisualizer animationSpeed 0
par simpleTsn.visualizer.mobilityVisualizer moduleFilter "\"**.mobility\""
attr mutable ""
par simpleTsn.visualizer.mobilityVisualizer displayPositions false
par simpleTsn.visualizer.mobilityVisualizer positionCircleRadius 4
par simpleTsn.visualizer.mobilityVisualizer positionCircleLineWidth 1
par simpleTsn.visualizer.mobilityVisualizer positionCircleLineColor "\"dark\""
attr enum light,dark
par simpleTsn.visualizer.mobilityVisualizer positionCircleFillColor "\"dark\""
attr enum light,dark
par simpleTsn.visualizer.mobilityVisualizer displayOrientations false
par simpleTsn.visualizer.mobilityVisualizer orientationPieRadius 32
par simpleTsn.visualizer.mobilityVisualizer orientationPieSize 0.2
par simpleTsn.visualizer.mobilityVisualizer orientationPieOpacity 0.25
par simpleTsn.visualizer.mobilityVisualizer orientationLineColor "\"black\""
par simpleTsn.visualizer.mobilityVisualizer orientationLineStyle "\"solid\""
par simpleTsn.visualizer.mobilityVisualizer orientationLineWidth 1
par simpleTsn.visualizer.mobilityVisualizer orientationFillColor "\"blue\""
par simpleTsn.visualizer.mobilityVisualizer displayVelocities false
par simpleTsn.visualizer.mobilityVisualizer velocityArrowScale 1
par simpleTsn.visualizer.mobilityVisualizer velocityLineColor "\"black\""
par simpleTsn.visualizer.mobilityVisualizer velocityLineStyle "\"solid\""
par simpleTsn.visualizer.mobilityVisualizer velocityLineWidth 1
par simpleTsn.visualizer.mobilityVisualizer displayMovementTrails false
par simpleTsn.visualizer.mobilityVisualizer movementTrailLineColor "\"dark\""
attr enum light,dark
par simpleTsn.visualizer.mobilityVisualizer movementTrailLineStyle "\"solid\""
par simpleTsn.visualizer.mobilityVisualizer movementTrailLineWidth 1
par simpleTsn.visualizer.mobilityVisualizer trailLength 100
par simpleTsn.visualizer.mobilityVisualizer zIndex 0
par simpleTsn.visualizer.statisticVisualizer typename "\"inet.visualizer.canvas.common.StatisticCanvasVisualizer\""
par simpleTsn.visualizer.statisticVisualizer visualizationTargetModule "\"^.^\""
par simpleTsn.visualizer.statisticVisualizer visualizationSubjectModule "\"^.^\""
par simpleTsn.visualizer.statisticVisualizer tags "\"\""
par simpleTsn.visualizer.statisticVisualizer networkNodeVisualizerModule "\"^.networkNodeVisualizer\""
par simpleTsn.visualizer.statisticVisualizer displayStatistics true
par simpleTsn.visualizer.statisticVisualizer signalName "\"\""
par simpleTsn.visualizer.statisticVisualizer statisticName "\"\""
par simpleTsn.visualizer.statisticVisualizer statisticUnit "\"\""
par simpleTsn.visualizer.statisticVisualizer statisticExpression "\"\""
par simpleTsn.visualizer.statisticVisualizer sourceFilter "\"**\""
attr mutable ""
par simpleTsn.visualizer.statisticVisualizer format "\"%n: %v %u\""
attr mutable ""
par simpleTsn.visualizer.statisticVisualizer unit "\"\""
par simpleTsn.visualizer.statisticVisualizer font "\"<default>\""
par simpleTsn.visualizer.statisticVisualizer textColor "\"black\""
par simpleTsn.visualizer.statisticVisualizer backgroundColor "\"white\""
par simpleTsn.visualizer.statisticVisualizer opacity 1
par simpleTsn.visualizer.statisticVisualizer placementHint "\"top\""
par simpleTsn.visualizer.statisticVisualizer placementPriority 0
par simpleTsn.visualizer.statisticVisualizer zIndex 10
par simpleTsn.visualizer.statisticVisualizer propertyName "\"\""
par simpleTsn.visualizer.statisticVisualizer propertyIndex "\"\""
par simpleTsn.visualizer.infoVisualizer typename "\"inet.visualizer.canvas.common.InfoCanvasVisualizer\""
par simpleTsn.visualizer.infoVisualizer visualizationTargetModule "\"^.^\""
par simpleTsn.visualizer.infoVisualizer visualizationSubjectModule "\"^.^\""
par simpleTsn.visualizer.infoVisualizer tags "\"\""
par simpleTsn.visualizer.infoVisualizer networkNodeVisualizerModule "\"^.networkNodeVisualizer\""
par simpleTsn.visualizer.infoVisualizer displayInfos true
par simpleTsn.visualizer.infoVisualizer modules "\"\""
attr mutable ""
par simpleTsn.visualizer.infoVisualizer format "\"%t\""
attr mutable ""
par simpleTsn.visualizer.infoVisualizer font "\"<default>\""
par simpleTsn.visualizer.infoVisualizer textColor "\"black\""
par simpleTsn.visualizer.infoVisualizer backgroundColor "\"white\""
par simpleTsn.visualizer.infoVisualizer opacity 1
par simpleTsn.visualizer.infoVisualizer placementHint "\"top\""
par simpleTsn.visualizer.infoVisualizer placementPriority 0
par simpleTsn.visualizer.infoVisualizer zIndex 10
par simpleTsn.visualizer.energyStorageVisualizer typename "\"inet.visualizer.canvas.power.EnergyStorageCanvasVisualizer\""
par simpleTsn.visualizer.energyStorageVisualizer visualizationTargetModule "\"^.^\""
par simpleTsn.visualizer.energyStorageVisualizer visualizationSubjectModule "\"^.^\""
par simpleTsn.visualizer.energyStorageVisualizer tags "\"\""
par simpleTsn.visualizer.energyStorageVisualizer networkNodeVisualizerModule "\"^.networkNodeVisualizer\""
par simpleTsn.visualizer.energyStorageVisualizer displayEnergyStorages false
par simpleTsn.visualizer.energyStorageVisualizer energyStorageFilter "\"**\""
par simpleTsn.visualizer.energyStorageVisualizer color "\"green\""
par simpleTsn.visualizer.energyStorageVisualizer width 8
par simpleTsn.visualizer.energyStorageVisualizer height 24
par simpleTsn.visualizer.energyStorageVisualizer spacing 2
par simpleTsn.visualizer.energyStorageVisualizer placementHint "\"right\""
par simpleTsn.visualizer.energyStorageVisualizer placementPriority 0
par simpleTsn.visualizer.energyStorageVisualizer zIndex 10
par simpleTsn.visualizer.mediumVisualizer typename "\"inet.visualizer.canvas.physicallayer.MediumCanvasVisualizer\""
par simpleTsn.visualizer.mediumVisualizer visualizationTargetModule "\"^.^\""
par simpleTsn.visualizer.mediumVisualizer visualizationSubjectModule "\"^.^\""
par simpleTsn.visualizer.mediumVisualizer tags "\"\""
par simpleTsn.visualizer.mediumVisualizer mediumModule "\"radioMedium\""
par simpleTsn.visualizer.mediumVisualizer networkNodeVisualizerModule "\"^.networkNodeVisualizer\""
par simpleTsn.visualizer.mediumVisualizer nodeFilter "\"*\""
attr mutable ""
par simpleTsn.visualizer.mediumVisualizer interfaceFilter "\"*\""
attr mutable ""
par simpleTsn.visualizer.mediumVisualizer packetFilter "(omnetpp::cValueHolder)holder: \"*\""
attr mutable ""
par simpleTsn.visualizer.mediumVisualizer displaySignals false
par simpleTsn.visualizer.mediumVisualizer signalColor "\"dark\""
attr enum light,dark
par simpleTsn.visualizer.mediumVisualizer signalPropagationAnimationSpeed "nan "
attr mutable ""
par simpleTsn.visualizer.mediumVisualizer signalPropagationAnimationTime 1s
attr unit s
par simpleTsn.visualizer.mediumVisualizer signalPropagationAdditionalTime 0s
attr unit s
par simpleTsn.visualizer.mediumVisualizer signalTransmissionAnimationSpeed "nan "
attr mutable ""
par simpleTsn.visualizer.mediumVisualizer signalTransmissionAnimationTime 1s
attr unit s
par simpleTsn.visualizer.mediumVisualizer signalAnimationSpeedChangeTimeMode "\"realTime\""
attr enum realTime,animationTime,simulationTime
par simpleTsn.visualizer.mediumVisualizer signalAnimationSpeedChangeTime 1s
attr unit s
par simpleTsn.visualizer.mediumVisualizer displaySignalDepartures false
par simpleTsn.visualizer.mediumVisualizer signalDepartureImage "\"misc/signal_departure.png\""
par simpleTsn.visualizer.mediumVisualizer signalDeparturePlacementHint "\"topCenter\""
par simpleTsn.visualizer.mediumVisualizer signalDeparturePlacementPriority 1
par simpleTsn.visualizer.mediumVisualizer displaySignalArrivals false
par simpleTsn.visualizer.mediumVisualizer signalArrivalImage "\"misc/signal_arrival.png\""
par simpleTsn.visualizer.mediumVisualizer signalArrivalPlacementHint "\"topCenter\""
par simpleTsn.visualizer.mediumVisualizer signalArrivalPlacementPriority -1
par simpleTsn.visualizer.mediumVisualizer displayCommunicationRanges false
par simpleTsn.visualizer.mediumVisualizer communicationRangeLineColor "\"blue\""
par simpleTsn.visualizer.mediumVisualizer communicationRangeLineStyle "\"solid\""
par simpleTsn.visualizer.mediumVisualizer communicationRangeLineWidth 1
par simpleTsn.visualizer.mediumVisualizer displayInterferenceRanges false
par simpleTsn.visualizer.mediumVisualizer interferenceRangeLineColor "\"gray\""
par simpleTsn.visualizer.mediumVisualizer interferenceRangeLineStyle "\"solid\""
par simpleTsn.visualizer.mediumVisualizer interferenceRangeLineWidth 1
par simpleTsn.visualizer.mediumVisualizer autoPowerAxis true
par simpleTsn.visualizer.mediumVisualizer signalMinPower "inf dBmW"
attr unit dBmW
par simpleTsn.visualizer.mediumVisualizer signalMaxPower 0dBmW
attr unit dBmW
par simpleTsn.visualizer.mediumVisualizer signalMinPowerDensity "inf dBmWpMHz"
attr unit dBmWpMHz
par simpleTsn.visualizer.mediumVisualizer signalMaxPowerDensity "-inf dBmWpMHz"
attr unit dBmWpMHz
par simpleTsn.visualizer.mediumVisualizer autoTimeAxis true
par simpleTsn.visualizer.mediumVisualizer signalMinTime 0s
attr unit s
par simpleTsn.visualizer.mediumVisualizer signalMaxTime 0s
attr unit s
par simpleTsn.visualizer.mediumVisualizer autoFrequencyAxis true
par simpleTsn.visualizer.mediumVisualizer signalMinFrequency "inf Hz"
attr unit Hz
par simpleTsn.visualizer.mediumVisualizer signalMaxFrequency "-inf Hz"
attr unit Hz
par simpleTsn.visualizer.mediumVisualizer displayMainPowerDensityMap false
par simpleTsn.visualizer.mediumVisualizer mainPowerDensityMapPixmapDensity 1
par simpleTsn.visualizer.mediumVisualizer mainPowerDensityMapMinX 0
par simpleTsn.visualizer.mediumVisualizer mainPowerDensityMapMaxX "nan "
par simpleTsn.visualizer.mediumVisualizer mainPowerDensityMapMinY 0
par simpleTsn.visualizer.mediumVisualizer mainPowerDensityMapMaxY "nan "
par simpleTsn.visualizer.mediumVisualizer mainPowerDensityMapZ 0
par simpleTsn.visualizer.mediumVisualizer mainPowerDensityMapFigureXTickCount 3
par simpleTsn.visualizer.mediumVisualizer mainPowerDensityMapFigureYTickCount 3
par simpleTsn.visualizer.mediumVisualizer displayPowerDensityMaps false
par simpleTsn.visualizer.mediumVisualizer powerDensityMapMode "\"auto\""
attr enum total,signal,auto
par simpleTsn.visualizer.mediumVisualizer powerDensityMapPixelMode "\"mean\""
attr enum sample,partition,mean
par simpleTsn.visualizer.mediumVisualizer powerDensityMapApproximationSize 10
par simpleTsn.visualizer.mediumVisualizer powerDensityMapCenterFrequency "nan Hz"
attr mutable ""
attr unit Hz
par simpleTsn.visualizer.mediumVisualizer powerDensityMapBandwidth 0Hz
attr mutable ""
attr unit Hz
par simpleTsn.visualizer.mediumVisualizer powerDensityMapFigureWidth 200
par simpleTsn.visualizer.mediumVisualizer powerDensityMapFigureHeight 120
par simpleTsn.visualizer.mediumVisualizer powerDensityMapPixmapWidth 200
par simpleTsn.visualizer.mediumVisualizer powerDensityMapPixmapHeight 120
par simpleTsn.visualizer.mediumVisualizer powerDensityMapZ 0
par simpleTsn.visualizer.mediumVisualizer powerDensityMapFigureXTickCount 3
par simpleTsn.visualizer.mediumVisualizer powerDensityMapFigureYTickCount 3
par simpleTsn.visualizer.mediumVisualizer displaySpectrums false
par simpleTsn.visualizer.mediumVisualizer spectrumMode "\"auto\""
attr enum total,signal,auto
par simpleTsn.visualizer.mediumVisualizer spectrumFigureWidth 200
par simpleTsn.visualizer.mediumVisualizer spectrumFigureHeight 120
par simpleTsn.visualizer.mediumVisualizer spectrumFigureXTickCount 3
par simpleTsn.visualizer.mediumVisualizer spectrumFigureYTickCount 5
par simpleTsn.visualizer.mediumVisualizer spectrumFigureInterpolationSize 5
par simpleTsn.visualizer.mediumVisualizer spectrumPlacementHint "\"bottomCenter\""
par simpleTsn.visualizer.mediumVisualizer spectrumPlacementPriority -1
par simpleTsn.visualizer.mediumVisualizer displaySpectrograms false
par simpleTsn.visualizer.mediumVisualizer spectrogramMode "\"auto\""
attr enum total,signal,auto
par simpleTsn.visualizer.mediumVisualizer spectrogramPixelMode "\"mean\""
attr enum sample,partition,mean
par simpleTsn.visualizer.mediumVisualizer spectrogramFigureWidth 200
par simpleTsn.visualizer.mediumVisualizer spectrogramFigureHeight 120
par simpleTsn.visualizer.mediumVisualizer spectrogramPixmapWidth 200
par simpleTsn.visualizer.mediumVisualizer spectrogramPixmapHeight 120
par simpleTsn.visualizer.mediumVisualizer spectrogramFigureXTickCount 3
par simpleTsn.visualizer.mediumVisualizer spectrogramFigureYTickCount 5
par simpleTsn.visualizer.mediumVisualizer spectrogramPlacementHint "\"bottomCenter\""
par simpleTsn.visualizer.mediumVisualizer spectrogramPlacementPriority -1
par simpleTsn.visualizer.mediumVisualizer zIndex 0
par simpleTsn.visualizer.mediumVisualizer signalShape "\"ring\""
attr enum ring,sphere
par simpleTsn.visualizer.mediumVisualizer signalOpacity 0.5
par simpleTsn.visualizer.mediumVisualizer signalRingCount 20
par simpleTsn.visualizer.mediumVisualizer signalRingSize 50m
attr unit m
par simpleTsn.visualizer.mediumVisualizer signalFadingDistance 50m
attr unit m
par simpleTsn.visualizer.mediumVisualizer signalFadingFactor 1.2
par simpleTsn.visualizer.mediumVisualizer signalWaveCount 20
par simpleTsn.visualizer.mediumVisualizer signalWaveLength 50m
attr unit m
par simpleTsn.visualizer.mediumVisualizer signalWaveWidth 10m
attr unit m
par simpleTsn.visualizer.mediumVisualizer signalWaveFadingAnimationSpeedFactor 1
par simpleTsn.visualizer.mediumVisualizer displayCommunicationHeat false
par simpleTsn.visualizer.obstacleLossVisualizer typename "\"inet.visualizer.canvas.physicallayer.TracingObstacleLossCanvasVisualizer\""
par simpleTsn.visualizer.obstacleLossVisualizer visualizationTargetModule "\"^.^\""
par simpleTsn.visualizer.obstacleLossVisualizer visualizationSubjectModule "\"^.^\""
par simpleTsn.visualizer.obstacleLossVisualizer tags "\"\""
par simpleTsn.visualizer.obstacleLossVisualizer displayIntersections false
par simpleTsn.visualizer.obstacleLossVisualizer intersectionLineColor "\"red\""
par simpleTsn.visualizer.obstacleLossVisualizer intersectionLineStyle "\"solid\""
par simpleTsn.visualizer.obstacleLossVisualizer intersectionLineWidth 1
par simpleTsn.visualizer.obstacleLossVisualizer displayFaceNormalVectors false
par simpleTsn.visualizer.obstacleLossVisualizer faceNormalLineColor "\"grey\""
par simpleTsn.visualizer.obstacleLossVisualizer faceNormalLineStyle "\"solid\""
par simpleTsn.visualizer.obstacleLossVisualizer faceNormalLineWidth 1
par simpleTsn.visualizer.obstacleLossVisualizer fadeOutMode "\"realTime\""
attr enum realTime,animationTime,simulationTime
par simpleTsn.visualizer.obstacleLossVisualizer fadeOutTime 1s
attr unit s
par simpleTsn.visualizer.obstacleLossVisualizer fadeOutAnimationSpeed 0
par simpleTsn.visualizer.obstacleLossVisualizer zIndex 0
par simpleTsn.visualizer.packetDropVisualizer typename "\"inet.visualizer.canvas.common.PacketDropCanvasVisualizer\""
par simpleTsn.visualizer.packetDropVisualizer visualizationTargetModule "\"^.^\""
par simpleTsn.visualizer.packetDropVisualizer visualizationSubjectModule "\"^.^\""
par simpleTsn.visualizer.packetDropVisualizer tags "\"\""
par simpleTsn.visualizer.packetDropVisualizer displayPacketDrops false
par simpleTsn.visualizer.packetDropVisualizer nodeFilter "\"*\""
attr mutable ""
par simpleTsn.visualizer.packetDropVisualizer interfaceFilter "\"*\""
attr mutable ""
par simpleTsn.visualizer.packetDropVisualizer packetFilter "(omnetpp::cValueHolder)holder: \"*\""
attr mutable ""
par simpleTsn.visualizer.packetDropVisualizer detailsFilter "\"*\""
attr mutable ""
par simpleTsn.visualizer.packetDropVisualizer icon "\"msg/packet_s\""
par simpleTsn.visualizer.packetDropVisualizer iconTintAmount 1
par simpleTsn.visualizer.packetDropVisualizer iconTintColor "\"dark\""
par simpleTsn.visualizer.packetDropVisualizer labelFormat "\"%n\""
attr mutable ""
par simpleTsn.visualizer.packetDropVisualizer labelFont "\"<default>\""
par simpleTsn.visualizer.packetDropVisualizer labelColor "\"black\""
par simpleTsn.visualizer.packetDropVisualizer fadeOutMode "\"realTime\""
attr enum realTime,animationTime,simulationTime
par simpleTsn.visualizer.packetDropVisualizer fadeOutTime 1s
attr unit s
par simpleTsn.visualizer.packetDropVisualizer fadeOutAnimationSpeed 0
par simpleTsn.visualizer.packetDropVisualizer zIndex 10
par simpleTsn.visualizer.packetDropVisualizer dx 32
par simpleTsn.visualizer.packetDropVisualizer dy 64
par simpleTsn.visualizer.packetFlowVisualizer typename "\"inet.visualizer.canvas.flow.PacketFlowCanvasVisualizer\""
par simpleTsn.visualizer.packetFlowVisualizer visualizationTargetModule "\"^.^\""
par simpleTsn.visualizer.packetFlowVisualizer visualizationSubjectModule "\"^.^\""
par simpleTsn.visualizer.packetFlowVisualizer tags "\"\""
par simpleTsn.visualizer.packetFlowVisualizer displayRoutes false
par simpleTsn.visualizer.packetFlowVisualizer startPathSignal "\"packetFlowStarted\""
par simpleTsn.visualizer.packetFlowVisualizer extendPathSignal "\"packetReceivedFromLower\""
par simpleTsn.visualizer.packetFlowVisualizer endPathSignal "\"packetFlowEnded\""
par simpleTsn.visualizer.packetFlowVisualizer nodeFilter "\"*\""
attr mutable ""
par simpleTsn.visualizer.packetFlowVisualizer packetFilter "(omnetpp::cValueHolder)holder: \"*\""
attr mutable ""
par simpleTsn.visualizer.packetFlowVisualizer lineColor "\"dark\""
attr enum light,dark
par simpleTsn.visualizer.packetFlowVisualizer lineStyle "\"dashed\""
par simpleTsn.visualizer.packetFlowVisualizer lineWidth 3
par simpleTsn.visualizer.packetFlowVisualizer lineSmooth false
par simpleTsn.visualizer.packetFlowVisualizer lineShift 16
par simpleTsn.visualizer.packetFlowVisualizer lineShiftMode "\"normal\""
par simpleTsn.visualizer.packetFlowVisualizer lineContactSpacing 3
par simpleTsn.visualizer.packetFlowVisualizer lineContactMode "\"rectangular\""
attr enum circular,rectangular
par simpleTsn.visualizer.packetFlowVisualizer labelFormat "\"%L %p pk (%l)\""
par simpleTsn.visualizer.packetFlowVisualizer labelFont "\"<default>, 8px\""
par simpleTsn.visualizer.packetFlowVisualizer labelColor "\"\""
par simpleTsn.visualizer.packetFlowVisualizer fadeOutMode "\"realTime\""
attr enum realTime,animationTime,simulationTime
par simpleTsn.visualizer.packetFlowVisualizer fadeOutTime 0s
attr unit s
par simpleTsn.visualizer.packetFlowVisualizer fadeOutAnimationSpeed 0
par simpleTsn.visualizer.packetFlowVisualizer zIndex 4
par simpleTsn.visualizer.queueVisualizer typename "\"inet.visualizer.canvas.common.QueueCanvasVisualizer\""
par simpleTsn.visualizer.queueVisualizer visualizationTargetModule "\"^.^\""
par simpleTsn.visualizer.queueVisualizer visualizationSubjectModule "\"^.^\""
par simpleTsn.visualizer.queueVisualizer tags "\"\""
par simpleTsn.visualizer.queueVisualizer networkNodeVisualizerModule "\"^.networkNodeVisualizer\""
par simpleTsn.visualizer.queueVisualizer displayQueues false
par simpleTsn.visualizer.queueVisualizer queueFilter "\"**\""
par simpleTsn.visualizer.queueVisualizer color "\"blue\""
par simpleTsn.visualizer.queueVisualizer width 8
par simpleTsn.visualizer.queueVisualizer height 24
par simpleTsn.visualizer.queueVisualizer spacing 2
par simpleTsn.visualizer.queueVisualizer placementHint "\"right\""
par simpleTsn.visualizer.queueVisualizer placementPriority 0
par simpleTsn.visualizer.queueVisualizer zIndex 10
par simpleTsn.visualizer.gateScheduleVisualizer typename "\"inet.visualizer.canvas.common.GateScheduleCanvasVisualizer\""
par simpleTsn.visualizer.gateScheduleVisualizer visualizationTargetModule "\"^.^\""
par simpleTsn.visualizer.gateScheduleVisualizer visualizationSubjectModule "\"^.^\""
par simpleTsn.visualizer.gateScheduleVisualizer tags "\"\""
par simpleTsn.visualizer.gateScheduleVisualizer networkNodeVisualizerModule "\"^.networkNodeVisualizer\""
par simpleTsn.visualizer.gateScheduleVisualizer displayGateSchedules false
par simpleTsn.visualizer.gateScheduleVisualizer labelFormat "\"%i %D\""
par simpleTsn.visualizer.gateScheduleVisualizer gateFilter "\"**.eth[1].**\""
par simpleTsn.visualizer.gateScheduleVisualizer width 100
par simpleTsn.visualizer.gateScheduleVisualizer height 16
par simpleTsn.visualizer.gateScheduleVisualizer spacing 2
par simpleTsn.visualizer.gateScheduleVisualizer placementHint "\"top\""
par simpleTsn.visualizer.gateScheduleVisualizer placementPriority 0
par simpleTsn.visualizer.gateScheduleVisualizer displayDuration 0s
attr mutable ""
attr unit s
par simpleTsn.visualizer.gateScheduleVisualizer currentTimePosition 50
par simpleTsn.visualizer.gateScheduleVisualizer zIndex 10
par simpleTsn.visualizer.radioVisualizer typename "\"inet.visualizer.canvas.physicallayer.RadioCanvasVisualizer\""
par simpleTsn.visualizer.radioVisualizer visualizationTargetModule "\"^.^\""
par simpleTsn.visualizer.radioVisualizer visualizationSubjectModule "\"^.^\""
par simpleTsn.visualizer.radioVisualizer tags "\"\""
par simpleTsn.visualizer.radioVisualizer networkNodeVisualizerModule "\"^.networkNodeVisualizer\""
par simpleTsn.visualizer.radioVisualizer displayRadios false
par simpleTsn.visualizer.radioVisualizer displayRadioMode true
par simpleTsn.visualizer.radioVisualizer displayReceptionState true
par simpleTsn.visualizer.radioVisualizer displayTransmissionState true
par simpleTsn.visualizer.radioVisualizer displayAntennaLobes false
par simpleTsn.visualizer.radioVisualizer radioFilter "\"**\""
attr mutable ""
par simpleTsn.visualizer.radioVisualizer radioModeImages "\"block/process_vs block/timer_vs block/wrx_vs block/wtx_vs block/wrxtx_vs block/cogwheel_vs\""
par simpleTsn.visualizer.radioVisualizer receptionStateImages "\"- - misc/receiving misc/receiving\""
par simpleTsn.visualizer.radioVisualizer transmissionStateImages "\"- - misc/transmitting\""
par simpleTsn.visualizer.radioVisualizer width 16
par simpleTsn.visualizer.radioVisualizer height 16
par simpleTsn.visualizer.radioVisualizer placementHint "\"bottomRight\""
par simpleTsn.visualizer.radioVisualizer placementPriority 0
par simpleTsn.visualizer.radioVisualizer antennaLobeNormalize false
par simpleTsn.visualizer.radioVisualizer antennaLobeRelativeLabels false
par simpleTsn.visualizer.radioVisualizer antennaLobePlaneGlobal true
par simpleTsn.visualizer.radioVisualizer antennaLobePlane "\"view\""
attr enum view,xy,xz,yz
par simpleTsn.visualizer.radioVisualizer antennaLobeMode "\"logarithmic\""
attr enum logarithmic,linear
par simpleTsn.visualizer.radioVisualizer antennaLobeLogarithmicBase 10
par simpleTsn.visualizer.radioVisualizer antennaLobeLogarithmicScale 100
par simpleTsn.visualizer.radioVisualizer antennaLobeRadius 100
par simpleTsn.visualizer.radioVisualizer antennaLobeStep 10deg
attr unit deg
par simpleTsn.visualizer.radioVisualizer antennaLobeOpacity 0.25
par simpleTsn.visualizer.radioVisualizer antennaLobeLineSmooth true
par simpleTsn.visualizer.radioVisualizer antennaLobeLineColor "\"black\""
par simpleTsn.visualizer.radioVisualizer antennaLobeLineStyle "\"solid\""
par simpleTsn.visualizer.radioVisualizer antennaLobeLineWidth 1
par simpleTsn.visualizer.radioVisualizer antennaLobeFillColor "\"white\""
par simpleTsn.visualizer.radioVisualizer zIndex 10
par simpleTsn.visualizer.physicalLinkVisualizer typename "\"inet.visualizer.canvas.physicallayer.PhysicalLinkCanvasVisualizer\""
par simpleTsn.visualizer.physicalLinkVisualizer visualizationTargetModule "\"^.^\""
par simpleTsn.visualizer.physicalLinkVisualizer visualizationSubjectModule "\"^.^\""
par simpleTsn.visualizer.physicalLinkVisualizer tags "\"\""
par simpleTsn.visualizer.physicalLinkVisualizer displayLinks false
par simpleTsn.visualizer.physicalLinkVisualizer activityLevel "\"service\""
attr enum service,peer,protocol
par simpleTsn.visualizer.physicalLinkVisualizer nodeFilter "\"*\""
attr mutable ""
par simpleTsn.visualizer.physicalLinkVisualizer interfaceFilter "\"*\""
attr mutable ""
par simpleTsn.visualizer.physicalLinkVisualizer packetFilter "(omnetpp::cValueHolder)holder: \"*\""
attr mutable ""
par simpleTsn.visualizer.physicalLinkVisualizer lineColor "\"olive\""
par simpleTsn.visualizer.physicalLinkVisualizer lineStyle "\"dotted\""
par simpleTsn.visualizer.physicalLinkVisualizer lineWidth 3
par simpleTsn.visualizer.physicalLinkVisualizer lineShift 16
par simpleTsn.visualizer.physicalLinkVisualizer lineShiftMode "\"normal\""
par simpleTsn.visualizer.physicalLinkVisualizer lineContactSpacing 3
par simpleTsn.visualizer.physicalLinkVisualizer lineContactMode "\"rectangular\""
attr enum circular,rectangular
par simpleTsn.visualizer.physicalLinkVisualizer labelFormat "\"%n\""
par simpleTsn.visualizer.physicalLinkVisualizer labelFont "\"<default>, 8px\""
par simpleTsn.visualizer.physicalLinkVisualizer labelColor "\"olive\""
par simpleTsn.visualizer.physicalLinkVisualizer fadeOutMode "\"realTime\""
attr enum realTime,animationTime,simulationTime
par simpleTsn.visualizer.physicalLinkVisualizer fadeOutTime 1s
attr unit s
par simpleTsn.visualizer.physicalLinkVisualizer fadeOutAnimationSpeed 0
par simpleTsn.visualizer.physicalLinkVisualizer holdAnimationTime 0s
attr unit s
par simpleTsn.visualizer.physicalLinkVisualizer zIndex 1
par simpleTsn.visualizer.interfaceTableVisualizer typename "\"inet.visualizer.canvas.linklayer.InterfaceTableCanvasVisualizer\""
par simpleTsn.visualizer.interfaceTableVisualizer visualizationTargetModule "\"^.^\""
par simpleTsn.visualizer.interfaceTableVisualizer visualizationSubjectModule "\"^.^\""
par simpleTsn.visualizer.interfaceTableVisualizer tags "\"\""
par simpleTsn.visualizer.interfaceTableVisualizer networkNodeVisualizerModule "\"^.networkNodeVisualizer\""
par simpleTsn.visualizer.interfaceTableVisualizer displayInterfaceTables false
par simpleTsn.visualizer.interfaceTableVisualizer displayWiredInterfacesAtConnections true
par simpleTsn.visualizer.interfaceTableVisualizer displayBackground false
par simpleTsn.visualizer.interfaceTableVisualizer nodeFilter "\"*\""
attr mutable ""
par simpleTsn.visualizer.interfaceTableVisualizer interfaceFilter "\"not(lo*)\""
attr mutable ""
par simpleTsn.visualizer.interfaceTableVisualizer format "\"%N %\\\\%a%/%l\""
attr mutable ""
par simpleTsn.visualizer.interfaceTableVisualizer placementHint "\"top\""
par simpleTsn.visualizer.interfaceTableVisualizer placementPriority 0
par simpleTsn.visualizer.interfaceTableVisualizer font "\"<default>\""
par simpleTsn.visualizer.interfaceTableVisualizer textColor "\"#005030\""
par simpleTsn.visualizer.interfaceTableVisualizer backgroundColor "\"white\""
par simpleTsn.visualizer.interfaceTableVisualizer opacity 1
par simpleTsn.visualizer.interfaceTableVisualizer zIndex 10
par simpleTsn.visualizer.dataLinkVisualizer typename "\"inet.visualizer.canvas.linklayer.DataLinkCanvasVisualizer\""
par simpleTsn.visualizer.dataLinkVisualizer visualizationTargetModule "\"^.^\""
par simpleTsn.visualizer.dataLinkVisualizer visualizationSubjectModule "\"^.^\""
par simpleTsn.visualizer.dataLinkVisualizer tags "\"\""
par simpleTsn.visualizer.dataLinkVisualizer displayLinks false
par simpleTsn.visualizer.dataLinkVisualizer activityLevel "\"service\""
attr enum service,peer,protocol
par simpleTsn.visualizer.dataLinkVisualizer nodeFilter "\"*\""
attr mutable ""
par simpleTsn.visualizer.dataLinkVisualizer interfaceFilter "\"*\""
attr mutable ""
par simpleTsn.visualizer.dataLinkVisualizer packetFilter "(omnetpp::cValueHolder)holder: \"*\""
attr mutable ""
par simpleTsn.visualizer.dataLinkVisualizer lineColor "\"darkcyan\""
par simpleTsn.visualizer.dataLinkVisualizer lineStyle "\"solid\""
par simpleTsn.visualizer.dataLinkVisualizer lineWidth 3
par simpleTsn.visualizer.dataLinkVisualizer lineShift 16
par simpleTsn.visualizer.dataLinkVisualizer lineShiftMode "\"normal\""
par simpleTsn.visualizer.dataLinkVisualizer lineContactSpacing 3
par simpleTsn.visualizer.dataLinkVisualizer lineContactMode "\"rectangular\""
attr enum circular,rectangular
par simpleTsn.visualizer.dataLinkVisualizer labelFormat "\"%n\""
par simpleTsn.visualizer.dataLinkVisualizer labelFont "\"<default>, 8px\""
par simpleTsn.visualizer.dataLinkVisualizer labelColor "\"darkcyan\""
par simpleTsn.visualizer.dataLinkVisualizer fadeOutMode "\"realTime\""
attr enum realTime,animationTime,simulationTime
par simpleTsn.visualizer.dataLinkVisualizer fadeOutTime 1s
attr unit s
par simpleTsn.visualizer.dataLinkVisualizer fadeOutAnimationSpeed 0
par simpleTsn.visualizer.dataLinkVisualizer holdAnimationTime 0s
attr unit s
par simpleTsn.visualizer.dataLinkVisualizer zIndex 2
par simpleTsn.visualizer.linkBreakVisualizer typename "\"inet.visualizer.canvas.linklayer.LinkBreakCanvasVisualizer\""
par simpleTsn.visualizer.linkBreakVisualizer visualizationTargetModule "\"^.^\""
par simpleTsn.visualizer.linkBreakVisualizer visualizationSubjectModule "\"^.^\""
par simpleTsn.visualizer.linkBreakVisualizer tags "\"\""
par simpleTsn.visualizer.linkBreakVisualizer displayLinkBreaks false
par simpleTsn.visualizer.linkBreakVisualizer nodeFilter "\"*\""
attr mutable ""
par simpleTsn.visualizer.linkBreakVisualizer interfaceFilter "\"*\""
attr mutable ""
par simpleTsn.visualizer.linkBreakVisualizer packetFilter "(omnetpp::cValueHolder)holder: \"*\""
attr mutable ""
par simpleTsn.visualizer.linkBreakVisualizer icon "\"status/stop\""
par simpleTsn.visualizer.linkBreakVisualizer iconTintAmount 0
par simpleTsn.visualizer.linkBreakVisualizer iconTintColor "\"\""
par simpleTsn.visualizer.linkBreakVisualizer fadeOutMode "\"realTime\""
attr enum realTime,animationTime,simulationTime
par simpleTsn.visualizer.linkBreakVisualizer fadeOutTime 1s
attr unit s
par simpleTsn.visualizer.linkBreakVisualizer fadeOutAnimationSpeed 0
par simpleTsn.visualizer.linkBreakVisualizer zIndex 2
par simpleTsn.visualizer.ieee80211Visualizer typename "\"inet.visualizer.canvas.linklayer.Ieee80211CanvasVisualizer\""
par simpleTsn.visualizer.ieee80211Visualizer visualizationTargetModule "\"^.^\""
par simpleTsn.visualizer.ieee80211Visualizer visualizationSubjectModule "\"^.^\""
par simpleTsn.visualizer.ieee80211Visualizer tags "\"\""
par simpleTsn.visualizer.ieee80211Visualizer networkNodeVisualizerModule "\"^.networkNodeVisualizer\""
par simpleTsn.visualizer.ieee80211Visualizer displayAssociations false
par simpleTsn.visualizer.ieee80211Visualizer nodeFilter "\"*\""
attr mutable ""
par simpleTsn.visualizer.ieee80211Visualizer interfaceFilter "\"*\""
attr mutable ""
par simpleTsn.visualizer.ieee80211Visualizer minPower -85dBm
attr unit dBm
par simpleTsn.visualizer.ieee80211Visualizer maxPower -50dBm
attr unit dBm
par simpleTsn.visualizer.ieee80211Visualizer icons "\"misc/signal_power_0 misc/signal_power_1 misc/signal_power_2 misc/signal_power_3\""
par simpleTsn.visualizer.ieee80211Visualizer iconColor "\"dark\""
attr enum light,dark
par simpleTsn.visualizer.ieee80211Visualizer labelFont "\"<default>\""
par simpleTsn.visualizer.ieee80211Visualizer labelColor "\"black\""
par simpleTsn.visualizer.ieee80211Visualizer placementHint "\"top\""
par simpleTsn.visualizer.ieee80211Visualizer placementPriority 0
par simpleTsn.visualizer.ieee80211Visualizer zIndex 2
par simpleTsn.visualizer.networkRouteVisualizer typename "\"inet.visualizer.canvas.networklayer.NetworkRouteCanvasVisualizer\""
par simpleTsn.visualizer.networkRouteVisualizer visualizationTargetModule "\"^.^\""
par simpleTsn.visualizer.networkRouteVisualizer visualizationSubjectModule "\"^.^\""
par simpleTsn.visualizer.networkRouteVisualizer tags "\"\""
par simpleTsn.visualizer.networkRouteVisualizer displayRoutes false
par simpleTsn.visualizer.networkRouteVisualizer startPathSignal "\"packetReceivedFromUpper\""
par simpleTsn.visualizer.networkRouteVisualizer extendPathSignal "\"packetReceivedFromLower\""
par simpleTsn.visualizer.networkRouteVisualizer endPathSignal "\"packetSentToUpper\""
par simpleTsn.visualizer.networkRouteVisualizer nodeFilter "\"*\""
attr mutable ""
par simpleTsn.visualizer.networkRouteVisualizer packetFilter "(omnetpp::cValueHolder)holder: \"*\""
attr mutable ""
par simpleTsn.visualizer.networkRouteVisualizer lineColor "\"dark\""
attr enum light,dark
par simpleTsn.visualizer.networkRouteVisualizer lineStyle "\"solid\""
par simpleTsn.visualizer.networkRouteVisualizer lineWidth 3
par simpleTsn.visualizer.networkRouteVisualizer lineSmooth false
par simpleTsn.visualizer.networkRouteVisualizer lineShift 16
par simpleTsn.visualizer.networkRouteVisualizer lineShiftMode "\"normal\""
par simpleTsn.visualizer.networkRouteVisualizer lineContactSpacing 3
par simpleTsn.visualizer.networkRouteVisualizer lineContactMode "\"rectangular\""
attr enum circular,rectangular
par simpleTsn.visualizer.networkRouteVisualizer labelFormat "\"%n\""
par simpleTsn.visualizer.networkRouteVisualizer labelFont "\"<default>, 8px\""
par simpleTsn.visualizer.networkRouteVisualizer labelColor "\"\""
par simpleTsn.visualizer.networkRouteVisualizer fadeOutMode "\"realTime\""
attr enum realTime,animationTime,simulationTime
par simpleTsn.visualizer.networkRouteVisualizer fadeOutTime 1s
attr unit s
par simpleTsn.visualizer.networkRouteVisualizer fadeOutAnimationSpeed 0
par simpleTsn.visualizer.networkRouteVisualizer zIndex 3
par simpleTsn.visualizer.routingTableVisualizer typename "\"inet.visualizer.canvas.networklayer.RoutingTableCanvasVisualizer\""
par simpleTsn.visualizer.routingTableVisualizer visualizationTargetModule "\"^.^\""
par simpleTsn.visualizer.routingTableVisualizer visualizationSubjectModule "\"^.^\""
par simpleTsn.visualizer.routingTableVisualizer tags "\"\""
par simpleTsn.visualizer.routingTableVisualizer displayRoutingTables false
par simpleTsn.visualizer.routingTableVisualizer displayRoutesIndividually true
par simpleTsn.visualizer.routingTableVisualizer displayLabels true
par simpleTsn.visualizer.routingTableVisualizer destinationFilter "\"*\""
attr mutable ""
par simpleTsn.visualizer.routingTableVisualizer nodeFilter "\"*\""
attr mutable ""
par simpleTsn.visualizer.routingTableVisualizer lineColor "\"black\""
par simpleTsn.visualizer.routingTableVisualizer lineStyle "\"solid\""
par simpleTsn.visualizer.routingTableVisualizer lineWidth 2
par simpleTsn.visualizer.routingTableVisualizer lineShift 16
par simpleTsn.visualizer.routingTableVisualizer lineShiftMode "\"normal\""
par simpleTsn.visualizer.routingTableVisualizer lineContactSpacing 3
par simpleTsn.visualizer.routingTableVisualizer lineContactMode "\"rectangular\""
attr enum circular,rectangular
par simpleTsn.visualizer.routingTableVisualizer labelFormat "\"%d/%m -> %g (%n)\""
attr mutable ""
par simpleTsn.visualizer.routingTableVisualizer labelFont "\"<default>, 8px\""
par simpleTsn.visualizer.routingTableVisualizer labelColor "\"black\""
par simpleTsn.visualizer.routingTableVisualizer zIndex 0
par simpleTsn.visualizer.transportRouteVisualizer typename "\"inet.visualizer.canvas.transportlayer.TransportRouteCanvasVisualizer\""
par simpleTsn.visualizer.transportRouteVisualizer visualizationTargetModule "\"^.^\""
par simpleTsn.visualizer.transportRouteVisualizer visualizationSubjectModule "\"^.^\""
par simpleTsn.visualizer.transportRouteVisualizer tags "\"\""
par simpleTsn.visualizer.transportRouteVisualizer displayRoutes false
par simpleTsn.visualizer.transportRouteVisualizer startPathSignal "\"packetReceivedFromUpper\""
par simpleTsn.visualizer.transportRouteVisualizer extendPathSignal "\"packetReceivedFromLower\""
par simpleTsn.visualizer.transportRouteVisualizer endPathSignal "\"packetSentToUpper\""
par simpleTsn.visualizer.transportRouteVisualizer nodeFilter "\"*\""
attr mutable ""
par simpleTsn.visualizer.transportRouteVisualizer packetFilter "(omnetpp::cValueHolder)holder: \"*\""
attr mutable ""
par simpleTsn.visualizer.transportRouteVisualizer lineColor "\"dark\""
attr enum light,dark
par simpleTsn.visualizer.transportRouteVisualizer lineStyle "\"solid\""
par simpleTsn.visualizer.transportRouteVisualizer lineWidth 3
par simpleTsn.visualizer.transportRouteVisualizer lineSmooth false
par simpleTsn.visualizer.transportRouteVisualizer lineShift 16
par simpleTsn.visualizer.transportRouteVisualizer lineShiftMode "\"normal\""
par simpleTsn.visualizer.transportRouteVisualizer lineContactSpacing 3
par simpleTsn.visualizer.transportRouteVisualizer lineContactMode "\"rectangular\""
attr enum circular,rectangular
par simpleTsn.visualizer.transportRouteVisualizer labelFormat "\"%n\""
par simpleTsn.visualizer.transportRouteVisualizer labelFont "\"<default>, 8px\""
par simpleTsn.visualizer.transportRouteVisualizer labelColor "\"\""
par simpleTsn.visualizer.transportRouteVisualizer fadeOutMode "\"realTime\""
attr enum realTime,animationTime,simulationTime
par simpleTsn.visualizer.transportRouteVisualizer fadeOutTime 1s
attr unit s
par simpleTsn.visualizer.transportRouteVisualizer fadeOutAnimationSpeed 0
par simpleTsn.visualizer.transportRouteVisualizer zIndex 4
par simpleTsn.visualizer.transportConnectionVisualizer typename "\"inet.visualizer.canvas.transportlayer.TransportConnectionCanvasVisualizer\""
par simpleTsn.visualizer.transportConnectionVisualizer visualizationTargetModule "\"^.^\""
par simpleTsn.visualizer.transportConnectionVisualizer visualizationSubjectModule "\"^.^\""
par simpleTsn.visualizer.transportConnectionVisualizer tags "\"\""
par simpleTsn.visualizer.transportConnectionVisualizer networkNodeVisualizerModule "\"^.networkNodeVisualizer\""
par simpleTsn.visualizer.transportConnectionVisualizer displayTransportConnections false
par simpleTsn.visualizer.transportConnectionVisualizer sourceNodeFilter "\"*\""
attr mutable ""
par simpleTsn.visualizer.transportConnectionVisualizer sourcePortFilter "\"*\""
attr mutable ""
par simpleTsn.visualizer.transportConnectionVisualizer destinationNodeFilter "\"*\""
attr mutable ""
par simpleTsn.visualizer.transportConnectionVisualizer destinationPortFilter "\"*\""
attr mutable ""
par simpleTsn.visualizer.transportConnectionVisualizer icon "\"misc/marker_s\""
par simpleTsn.visualizer.transportConnectionVisualizer iconColor "\"dark\""
attr enum light,dark
par simpleTsn.visualizer.transportConnectionVisualizer labelFont "\"<default>\""
par simpleTsn.visualizer.transportConnectionVisualizer labelColor "\"black\""
par simpleTsn.visualizer.transportConnectionVisualizer placementHint "\"top\""
par simpleTsn.visualizer.transportConnectionVisualizer placementPriority 0
par simpleTsn.visualizer.transportConnectionVisualizer zIndex 4
par simpleTsn.visualizer.failureProtectionConfigurationVisualizer typename "\"inet.visualizer.canvas.configurator.FailureProtectionConfigurationCanvasVisualizer\""
par simpleTsn.visualizer.failureProtectionConfigurationVisualizer visualizationTargetModule "\"^.^\""
par simpleTsn.visualizer.failureProtectionConfigurationVisualizer visualizationSubjectModule "\"^.^\""
par simpleTsn.visualizer.failureProtectionConfigurationVisualizer tags "\"\""
par simpleTsn.visualizer.failureProtectionConfigurationVisualizer displayTrees false
par simpleTsn.visualizer.failureProtectionConfigurationVisualizer lineColor "\"dark\""
attr enum light,dark
par simpleTsn.visualizer.failureProtectionConfigurationVisualizer lineStyle "\"solid\""
par simpleTsn.visualizer.failureProtectionConfigurationVisualizer lineWidth 3
par simpleTsn.visualizer.failureProtectionConfigurationVisualizer lineSmooth false
par simpleTsn.visualizer.failureProtectionConfigurationVisualizer lineShift 16
par simpleTsn.visualizer.failureProtectionConfigurationVisualizer lineShiftMode "\"normal\""
par simpleTsn.visualizer.failureProtectionConfigurationVisualizer lineContactSpacing 3
par simpleTsn.visualizer.failureProtectionConfigurationVisualizer lineContactMode "\"rectangular\""
attr enum circular,rectangular
par simpleTsn.visualizer.failureProtectionConfigurationVisualizer failureProtectionConfiguratorModule "\"failureProtectionConfigurator\""
par simpleTsn.visualizer.failureProtectionConfigurationVisualizer streamFilter "\"*\""
par simpleTsn.visualizer.failureProtectionConfigurationVisualizer zIndex 3
par simpleTsn.visualizer.streamRedundancyConfigurationVisualizer typename "\"inet.visualizer.canvas.configurator.StreamRedundancyConfigurationCanvasVisualizer\""
par simpleTsn.visualizer.streamRedundancyConfigurationVisualizer visualizationTargetModule "\"^.^\""
par simpleTsn.visualizer.streamRedundancyConfigurationVisualizer visualizationSubjectModule "\"^.^\""
par simpleTsn.visualizer.streamRedundancyConfigurationVisualizer tags "\"\""
par simpleTsn.visualizer.streamRedundancyConfigurationVisualizer displayTrees false
par simpleTsn.visualizer.streamRedundancyConfigurationVisualizer lineColor "\"dark\""
attr enum light,dark
par simpleTsn.visualizer.streamRedundancyConfigurationVisualizer lineStyle "\"solid\""
par simpleTsn.visualizer.streamRedundancyConfigurationVisualizer lineWidth 3
par simpleTsn.visualizer.streamRedundancyConfigurationVisualizer lineSmooth false
par simpleTsn.visualizer.streamRedundancyConfigurationVisualizer lineShift 16
par simpleTsn.visualizer.streamRedundancyConfigurationVisualizer lineShiftMode "\"normal\""
par simpleTsn.visualizer.streamRedundancyConfigurationVisualizer lineContactSpacing 3
par simpleTsn.visualizer.streamRedundancyConfigurationVisualizer lineContactMode "\"rectangular\""
attr enum circular,rectangular
par simpleTsn.visualizer.streamRedundancyConfigurationVisualizer streamRedundancyConfiguratorModule "\"streamRedundancyConfigurator\""
par simpleTsn.visualizer.streamRedundancyConfigurationVisualizer streamFilter "\"*\""
par simpleTsn.visualizer.streamRedundancyConfigurationVisualizer zIndex 3
par simpleTsn.visualizer typename "\"inet.visualizer.canvas.integrated.IntegratedCanvasVisualizer\""
par simpleTsn.configurator typename "\"inet.networklayer.configurator.ipv4.Ipv4NetworkConfigurator\""
par simpleTsn.configurator minLinkWeight 0.001
par simpleTsn.configurator configureIsolatedNetworksSeparatly false
par simpleTsn.configurator config "<config>...</config> at content:1"
par simpleTsn.configurator assignAddresses true
par simpleTsn.configurator assignUniqueAddresses true
par simpleTsn.configurator assignDisjunctSubnetAddresses true
par simpleTsn.configurator addStaticRoutes true
par simpleTsn.configurator addDefaultRoutes true
par simpleTsn.configurator addSubnetRoutes true
par simpleTsn.configurator addDirectRoutes true
par simpleTsn.configurator optimizeRoutes true
par simpleTsn.configurator dumpTopology false
par simpleTsn.configurator dumpLinks false
par simpleTsn.configurator dumpAddresses false
par simpleTsn.configurator dumpRoutes false
par simpleTsn.configurator dumpConfig "\"\""
par simpleTsn.macForwardingTableConfigurator typename "\"inet.linklayer.configurator.MacForwardingTableConfigurator\""
par simpleTsn.scenarioManager typename "\"inet.common.scenario.ScenarioManager\""
par simpleTsn.scenarioManager script "<scenario>...</scenario> at /simulations/6GDetCom_Simulator/simulations/simpleTsn//scenario.xml:1"
par simpleTsn.histogramContainer typename "\"d6g.distribution.histogram.HistogramContainer\""
par simpleTsn.histogramContainer histograms "{Downlink: \"../../../deterministic6g_data/PD-Wireless-5G-1/s10-DL_wall.xml\", Uplink: \"../../../deterministic6g_data/PD-Wireless-5G-1/s1-UL_wall.xml\"}"
par simpleTsn.device1.ethg$i[0].channel typename "\"ned.IdealChannel\""
par simpleTsn.device1.eth[0].phys$o.channel typename "\"ned.IdealChannel\""
par simpleTsn.device1.interfaceTable typename "\"inet.networklayer.common.InterfaceTable\""
par simpleTsn.device1.interfaceTable displayAddresses false
par simpleTsn.device1.cb typename "\"inet.common.MessageDispatcher\""
par simpleTsn.device1.cb displayStringTextFormat "\"processed %p pk (%l)\""
par simpleTsn.device1.cb forwardServiceRegistration true
par simpleTsn.device1.cb forwardProtocolRegistration true
par simpleTsn.device1.bridging.directionReverser.upperLayerIn.channel typename "\"ned.IdealChannel\""
par simpleTsn.device1.bridging.directionReverser.join.out.channel typename "\"ned.IdealChannel\""
par simpleTsn.device1.bridging.directionReverser.lowerLayerIn.channel typename "\"ned.IdealChannel\""
par simpleTsn.device1.bridging.directionReverser.fork.out[0].channel typename "\"ned.IdealChannel\""
par simpleTsn.device1.bridging.directionReverser.fork typename "\"inet.common.MessageDispatcher\""
par simpleTsn.device1.bridging.directionReverser.fork displayStringTextFormat "\"processed %p pk (%l)\""
par simpleTsn.device1.bridging.directionReverser.fork forwardServiceRegistration false
par simpleTsn.device1.bridging.directionReverser.fork forwardProtocolRegistration true
par simpleTsn.device1.bridging.directionReverser.reverser typename "\"inet.linklayer.ethernet.common.PacketDirectionReverser\""
par simpleTsn.device1.bridging.directionReverser.reverser displayStringTextFormat "\"processed %p pk (%l)\""
par simpleTsn.device1.bridging.directionReverser.reverser forwardVlan true
par simpleTsn.device1.bridging.directionReverser.reverser forwardPcp true
par simpleTsn.device1.bridging.directionReverser.reverser excludeEncapsulationProtocols []
scalar simpleTsn.device1.bridging.directionReverser.reverser outgoingPackets:count 0
attr recordingmode count
attr source "merge(packetPushedOut, packetPulledOut)"
attr title "outgoing packets, count"
attr unit pk
scalar simpleTsn.device1.bridging.directionReverser.reverser outgoingPacketLengths:sum 0
attr interpolationmode none
attr recordingmode sum
attr source "packetLength(merge(packetPushedOut, packetPulledOut))"
attr title "outgoing packet lengths, sum"
attr unit b
statistic simpleTsn.device1.bridging.directionReverser.reverser outgoingPacketLengths:histogram
field count 0
field mean nan
field stddev nan
field min nan
field max nan
field sum 0
field sqrsum 0
attr interpolationmode none
attr recordingmode histogram
attr source "packetLength(merge(packetPushedOut, packetPulledOut))"
attr title "outgoing packet lengths"
attr unit b
bin	-inf	0
bin	0	0
bin	1	0
scalar simpleTsn.device1.bridging.directionReverser.reverser flowOutgoingPacketLengths:sum 0
attr interpolationmode none
attr recordingmode sum
attr source "packetLength(demuxFlow(merge(packetPushedOut, packetPulledOut)))"
attr title "flow specific outgoing packet lengths, sum"
attr unit b
statistic simpleTsn.device1.bridging.directionReverser.reverser flowOutgoingPacketLengths:histogram
field count 0
field mean nan
field stddev nan
field min nan
field max nan
field sum 0
field sqrsum 0
attr interpolationmode none
attr recordingmode histogram
attr source "packetLength(demuxFlow(merge(packetPushedOut, packetPulledOut)))"
attr title "flow specific outgoing packet lengths"
attr unit b
bin	-inf	0
bin	0	0
bin	1	0
scalar simpleTsn.device1.bridging.directionReverser.reverser incomingPackets:count 0
attr recordingmode count
attr source "merge(packetPushedIn, packetPulledIn)"
attr title "incoming packets, count"
attr unit pk
scalar simpleTsn.device1.bridging.directionReverser.reverser incomingPacketLengths:sum 0
attr interpolationmode none
attr recordingmode sum
attr source "packetLength(merge(packetPushedIn, packetPulledIn))"
attr title "incoming packet lengths, sum"
attr unit b
statistic simpleTsn.device1.bridging.directionReverser.reverser incomingPacketLengths:histogram
field count 0
field mean nan
field stddev nan
field min nan
field max nan
field sum 0
field sqrsum 0
attr interpolationmode none
attr recordingmode histogram
attr source "packetLength(merge(packetPushedIn, packetPulledIn))"
attr title "incoming packet lengths"
attr unit b
bin	-inf	0
bin	0	0
bin	1	0
scalar simpleTsn.device1.bridging.directionReverser.reverser flowIncomingPacketLengths:sum 0
attr interpolationmode none
attr recordingmode sum
attr source "packetLength(demuxFlow(merge(packetPushedIn, packetPulledIn)))"
attr title "flow specific incoming packet lengths, sum"
attr unit b
statistic simpleTsn.device1.bridging.directionReverser.reverser flowIncomingPacketLengths:histogram
field count 0
field mean nan
field stddev nan
field min nan
field max nan
field sum 0
field sqrsum 0
attr interpolationmode none
attr recordingmode histogram
attr source "packetLength(demuxFlow(merge(packetPushedIn, packetPulledIn)))"
attr title "flow specific incoming packet lengths"
attr unit b
bin	-inf	0
bin	0	0
bin	1	0
par simpleTsn.device1.bridging.directionReverser.join typename "\"inet.queueing.common.PacketMultiplexer\""
par simpleTsn.device1.bridging.directionReverser.join displayStringTextFormat "\"passed %p pk (%l)\""
par simpleTsn.device1.bridging.directionReverser.join forwardServiceRegistration true
par simpleTsn.device1.bridging.directionReverser.join forwardProtocolRegistration false
scalar simpleTsn.device1.bridging.directionReverser.join packets:count 0
attr recordingmode count
attr source "merge(packetPushed, packetPulled)"
attr title "packets, count"
attr unit pk
scalar simpleTsn.device1.bridging.directionReverser.join packetLengths:sum 0
attr interpolationmode none
attr recordingmode sum
attr source "packetLength(merge(packetPushed, packetPulled))"
attr title "packet lengths, sum"
attr unit b
statistic simpleTsn.device1.bridging.directionReverser.join packetLengths:histogram
field count 0
field mean nan
field stddev nan
field min nan
field max nan
field sum 0
field sqrsum 0
attr interpolationmode none
attr recordingmode histogram
attr source "packetLength(merge(packetPushed, packetPulled))"
attr title "packet lengths"
attr unit b
bin	-inf	0
bin	0	0
bin	1	0
par simpleTsn.device1.bridging.directionReverser typename "\"inet.linklayer.ethernet.common.DirectionReverserLayer\""
par simpleTsn.device1.bridging.streamIdentifier.upperLayerIn.channel typename "\"ned.IdealChannel\""
par simpleTsn.device1.bridging.streamIdentifier.identifier.out.channel typename "\"ned.IdealChannel\""
par simpleTsn.device1.bridging.streamIdentifier.identifier typename "\"inet.protocolelement.redundancy.StreamIdentifier\""
par simpleTsn.device1.bridging.streamIdentifier.identifier displayStringTextFormat "\"processed %p pk (%l)\""
par simpleTsn.device1.bridging.streamIdentifier.identifier hasSequenceNumbering false
par simpleTsn.device1.bridging.streamIdentifier.identifier mapping []
attr mutable ""
scalar simpleTsn.device1.bridging.streamIdentifier.identifier outgoingPackets:count 101
attr recordingmode count
attr source "merge(packetPushedOut, packetPulledOut)"
attr title "outgoing packets, count"
attr unit pk
scalar simpleTsn.device1.bridging.streamIdentifier.identifier outgoingPacketLengths:sum 786992
attr interpolationmode none
attr recordingmode sum
attr source "packetLength(merge(packetPushedOut, packetPulledOut))"
attr title "outgoing packet lengths, sum"
attr unit b
statistic simpleTsn.device1.bridging.streamIdentifier.identifier outgoingPacketLengths:histogram
field count 101
field mean 7792
field stddev 0
field min 7792
field max 7792
field sum 786992
field sqrsum 6132241664
attr interpolationmode none
attr recordingmode histogram
attr source "packetLength(merge(packetPushedOut, packetPulledOut))"
attr title "outgoing packet lengths"
attr unit b
bin	-inf	0
bin	7791	0
bin	7792	101
bin	7793	0
scalar simpleTsn.device1.bridging.streamIdentifier.identifier flowOutgoingPacketLengths:sum 0
attr interpolationmode none
attr recordingmode sum
attr source "packetLength(demuxFlow(merge(packetPushedOut, packetPulledOut)))"
attr title "flow specific outgoing packet lengths, sum"
attr unit b
statistic simpleTsn.device1.bridging.streamIdentifier.identifier flowOutgoingPacketLengths:histogram
field count 0
field mean nan
field stddev nan
field min nan
field max nan
field sum 0
field sqrsum 0
attr interpolationmode none
attr recordingmode histogram
attr source "packetLength(demuxFlow(merge(packetPushedOut, packetPulledOut)))"
attr title "flow specific outgoing packet lengths"
attr unit b
bin	-inf	0
bin	0	0
bin	1	0
scalar simpleTsn.device1.bridging.streamIdentifier.identifier incomingPackets:count 101
attr recordingmode count
attr source "merge(packetPushedIn, packetPulledIn)"
attr title "incoming packets, count"
attr unit pk
scalar simpleTsn.device1.bridging.streamIdentifier.identifier incomingPacketLengths:sum 786992
attr interpolationmode none
attr recordingmode sum
attr source "packetLength(merge(packetPushedIn, packetPulledIn))"
attr title "incoming packet lengths, sum"
attr unit b
statistic simpleTsn.device1.bridging.streamIdentifier.identifier incomingPacketLengths:histogram
field count 101
field mean 7792
field stddev 0
field min 7792
field max 7792
field sum 786992
field sqrsum 6132241664
attr interpolationmode none
attr recordingmode histogram
attr source "packetLength(merge(packetPushedIn, packetPulledIn))"
attr title "incoming packet lengths"
attr unit b
bin	-inf	0
bin	7791	0
bin	7792	101
bin	7793	0
scalar simpleTsn.device1.bridging.streamIdentifier.identifier flowIncomingPacketLengths:sum 0
attr interpolationmode none
attr recordingmode sum
attr source "packetLength(demuxFlow(merge(packetPushedIn, packetPulledIn)))"
attr title "flow specific incoming packet lengths, sum"
attr unit b
statistic simpleTsn.device1.bridging.streamIdentifier.identifier flowIncomingPacketLengths:histogram
field count 0
field mean nan
field stddev nan
field min nan
field max nan
field sum 0
field sqrsum 0
attr interpolationmode none
attr recordingmode histogram
attr source "packetLength(demuxFlow(merge(packetPushedIn, packetPulledIn)))"
attr title "flow specific incoming packet lengths"
attr unit b
bin	-inf	0
bin	0	0
bin	1	0
par simpleTsn.device1.bridging.streamIdentifier typename "\"inet.protocolelement.redundancy.StreamIdentifierLayer\""
par simpleTsn.device1.bridging.streamCoder.upperLayerIn.channel typename "\"ned.IdealChannel\""
par simpleTsn.device1.bridging.streamCoder.encoder.out.channel typename "\"ned.IdealChannel\""
par simpleTsn.device1.bridging.streamCoder.lowerLayerIn.channel typename "\"ned.IdealChannel\""
par simpleTsn.device1.bridging.streamCoder.decoder.out.channel typename "\"ned.IdealChannel\""
par simpleTsn.device1.bridging.streamCoder.decoder typename "\"inet.protocolelement.redundancy.StreamDecoder\""
par simpleTsn.device1.bridging.streamCoder.decoder displayStringTextFormat "\"processed %p pk (%l)\""
par simpleTsn.device1.bridging.streamCoder.decoder interfaceTableModule "\"simpleTsn.device1.interfaceTable\""
par simpleTsn.device1.bridging.streamCoder.decoder mapping []
attr mutable ""
scalar simpleTsn.device1.bridging.streamCoder.decoder outgoingPackets:count 0
attr recordingmode count
attr source "merge(packetPushedOut, packetPulledOut)"
attr title "outgoing packets, count"
attr unit pk
scalar simpleTsn.device1.bridging.streamCoder.decoder outgoingPacketLengths:sum 0
attr interpolationmode none
attr recordingmode sum
attr source "packetLength(merge(packetPushedOut, packetPulledOut))"
attr title "outgoing packet lengths, sum"
attr unit b
statistic simpleTsn.device1.bridging.streamCoder.decoder outgoingPacketLengths:histogram
field count 0
field mean nan
field stddev nan
field min nan
field max nan
field sum 0
field sqrsum 0
attr interpolationmode none
attr recordingmode histogram
attr source "packetLength(merge(packetPushedOut, packetPulledOut))"
attr title "outgoing packet lengths"
attr unit b
bin	-inf	0
bin	0	0
bin	1	0
scalar simpleTsn.device1.bridging.streamCoder.decoder flowOutgoingPacketLengths:sum 0
attr interpolationmode none
attr recordingmode sum
attr source "packetLength(demuxFlow(merge(packetPushedOut, packetPulledOut)))"
attr title "flow specific outgoing packet lengths, sum"
attr unit b
statistic simpleTsn.device1.bridging.streamCoder.decoder flowOutgoingPacketLengths:histogram
field count 0
field mean nan
field stddev nan
field min nan
field max nan
field sum 0
field sqrsum 0
attr interpolationmode none
attr recordingmode histogram
attr source "packetLength(demuxFlow(merge(packetPushedOut, packetPulledOut)))"
attr title "flow specific outgoing packet lengths"
attr unit b
bin	-inf	0
bin	0	0
bin	1	0
scalar simpleTsn.device1.bridging.streamCoder.decoder incomingPackets:count 0
attr recordingmode count
attr source "merge(packetPushedIn, packetPulledIn)"
attr title "incoming packets, count"
attr unit pk
scalar simpleTsn.device1.bridging.streamCoder.decoder incomingPacketLengths:sum 0
attr interpolationmode none
attr recordingmode sum
attr source "packetLength(merge(packetPushedIn, packetPulledIn))"
attr title "incoming packet lengths, sum"
attr unit b
statistic simpleTsn.device1.bridging.streamCoder.decoder incomingPacketLengths:histogram
field count 0
field mean nan
field stddev nan
field min nan
field max nan
field sum 0
field sqrsum 0
attr interpolationmode none
attr recordingmode histogram
attr source "packetLength(merge(packetPushedIn, packetPulledIn))"
attr title "incoming packet lengths"
attr unit b
bin	-inf	0
bin	0	0
bin	1	0
scalar simpleTsn.device1.bridging.streamCoder.decoder flowIncomingPacketLengths:sum 0
attr interpolationmode none
attr recordingmode sum
attr source "packetLength(demuxFlow(merge(packetPushedIn, packetPulledIn)))"
attr title "flow specific incoming packet lengths, sum"
attr unit b
statistic simpleTsn.device1.bridging.streamCoder.decoder flowIncomingPacketLengths:histogram
field count 0
field mean nan
field stddev nan
field min nan
field max nan
field sum 0
field sqrsum 0
attr interpolationmode none
attr recordingmode histogram
attr source "packetLength(demuxFlow(merge(packetPushedIn, packetPulledIn)))"
attr title "flow specific incoming packet lengths"
attr unit b
bin	-inf	0
bin	0	0
bin	1	0
par simpleTsn.device1.bridging.streamCoder.encoder typename "\"inet.protocolelement.redundancy.StreamEncoder\""
par simpleTsn.device1.bridging.streamCoder.encoder displayStringTextFormat "\"processed %p pk (%l)\""
par simpleTsn.device1.bridging.streamCoder.encoder mapping []
attr mutable ""
scalar simpleTsn.device1.bridging.streamCoder.encoder outgoingPackets:count 101
attr recordingmode count
attr source "merge(packetPushedOut, packetPulledOut)"
attr title "outgoing packets, count"
attr unit pk
scalar simpleTsn.device1.bridging.streamCoder.encoder outgoingPacketLengths:sum 786992
attr interpolationmode none
attr recordingmode sum
attr source "packetLength(merge(packetPushedOut, packetPulledOut))"
attr title "outgoing packet lengths, sum"
attr unit b
statistic simpleTsn.device1.bridging.streamCoder.encoder outgoingPacketLengths:histogram
field count 101
field mean 7792
field stddev 0
field min 7792
field max 7792
field sum 786992
field sqrsum 6132241664
attr interpolationmode none
attr recordingmode histogram
attr source "packetLength(merge(packetPushedOut, packetPulledOut))"
attr title "outgoing packet lengths"
attr unit b
bin	-inf	0
bin	7791	0
bin	7792	101
bin	7793	0
scalar simpleTsn.device1.bridging.streamCoder.encoder flowOutgoingPacketLengths:sum 0
attr interpolationmode none
attr recordingmode sum
attr source "packetLength(demuxFlow(merge(packetPushedOut, packetPulledOut)))"
attr title "flow specific outgoing packet lengths, sum"
attr unit b
statistic simpleTsn.device1.bridging.streamCoder.encoder flowOutgoingPacketLengths:histogram
field count 0
field mean nan
field stddev nan
field min nan
field max nan
field sum 0
field sqrsum 0
attr interpolationmode none
attr recordingmode histogram
attr source "packetLength(demuxFlow(merge(packetPushedOut, packetPulledOut)))"
attr title "flow specific outgoing packet lengths"
attr unit b
bin	-inf	0
bin	0	0
bin	1	0
scalar simpleTsn.device1.bridging.streamCoder.encoder incomingPackets:count 101
attr recordingmode count
attr source "merge(packetPushedIn, packetPulledIn)"
attr title "incoming packets, count"
attr unit pk
scalar simpleTsn.device1.bridging.streamCoder.encoder incomingPacketLengths:sum 786992
attr interpolationmode none
attr recordingmode sum
attr source "packetLength(merge(packetPushedIn, packetPulledIn))"
attr title "incoming packet lengths, sum"
attr unit b
statistic simpleTsn.device1.bridging.streamCoder.encoder incomingPacketLengths:histogram
field count 101
field mean 7792
field stddev 0
field min 7792
field max 7792
field sum 786992
field sqrsum 6132241664
attr interpolationmode none
attr recordingmode histogram
attr source "packetLength(merge(packetPushedIn, packetPulledIn))"
attr title "incoming packet lengths"
attr unit b
bin	-inf	0
bin	7791	0
bin	7792	101
bin	7793	0
scalar simpleTsn.device1.bridging.streamCoder.encoder flowIncomingPacketLengths:sum 0
attr interpolationmode none
attr recordingmode sum
attr source "packetLength(demuxFlow(merge(packetPushedIn, packetPulledIn)))"
attr title "flow specific incoming packet lengths, sum"
attr unit b
statistic simpleTsn.device1.bridging.streamCoder.encoder flowIncomingPacketLengths:histogram
field count 0
field mean nan
field stddev nan
field min nan
field max nan
field sum 0
field sqrsum 0
attr interpolationmode none
attr recordingmode histogram
attr source "packetLength(demuxFlow(merge(packetPushedIn, packetPulledIn)))"
attr title "flow specific incoming packet lengths"
attr unit b
bin	-inf	0
bin	0	0
bin	1	0
par simpleTsn.device1.bridging.streamCoder typename "\"inet.protocolelement.redundancy.StreamCoderLayer\""
par simpleTsn.device1.bridging.streamCoder interfaceTableModule "\"simpleTsn.device1.interfaceTable\""
par simpleTsn.device1.bridging typename "\"inet.linklayer.ethernet.common.BridgingLayer\""
par simpleTsn.device1.bridging macTableModule "\"\""
par simpleTsn.device1.bridging interfaceTableModule "\"simpleTsn.device1.interfaceTable\""
par simpleTsn.device1.bl typename "\"inet.common.MessageDispatcher\""
par simpleTsn.device1.bl displayStringTextFormat "\"processed %p pk (%l)\""
par simpleTsn.device1.bl forwardServiceRegistration true
par simpleTsn.device1.bl forwardProtocolRegistration true
par simpleTsn.device1.ethernet.fcsInserter.out.channel typename "\"ned.IdealChannel\""
par simpleTsn.device1.ethernet.lowerLayerIn.channel typename "\"ned.IdealChannel\""
par simpleTsn.device1.ethernet.upperLayerIn.channel typename "\"ned.IdealChannel\""
par simpleTsn.device1.ethernet.macHeaderChecker.out.channel typename "\"ned.IdealChannel\""
par simpleTsn.device1.ethernet.macHeaderInserter typename "\"inet.linklayer.ethernet.modular.EthernetMacHeaderInserter\""
par simpleTsn.device1.ethernet.macHeaderInserter displayStringTextFormat "\"processed %p pk (%l)\""
par simpleTsn.device1.ethernet.macHeaderInserter interfaceTableModule "\"simpleTsn.device1.interfaceTable\""
scalar simpleTsn.device1.ethernet.macHeaderInserter outgoingPackets:count 101
attr recordingmode count
attr source "merge(packetPushedOut, packetPulledOut)"
attr title "outgoing packets, count"
attr unit pk
scalar simpleTsn.device1.ethernet.macHeaderInserter outgoingPacketLengths:sum 798304
attr interpolationmode none
attr recordingmode sum
attr source "packetLength(merge(packetPushedOut, packetPulledOut))"
attr title "outgoing packet lengths, sum"
attr unit b
statistic simpleTsn.device1.ethernet.macHeaderInserter outgoingPacketLengths:histogram
field count 101
field mean 7904
field stddev 0
field min 7904
field max 7904
field sum 798304
field sqrsum 6309794816
attr interpolationmode none
attr recordingmode histogram
attr source "packetLength(merge(packetPushedOut, packetPulledOut))"
attr title "outgoing packet lengths"
attr unit b
bin	-inf	0
bin	7903	0
bin	7904	101
bin	7905	0
scalar simpleTsn.device1.ethernet.macHeaderInserter flowOutgoingPacketLengths:sum 0
attr interpolationmode none
attr recordingmode sum
attr source "packetLength(demuxFlow(merge(packetPushedOut, packetPulledOut)))"
attr title "flow specific outgoing packet lengths, sum"
attr unit b
statistic simpleTsn.device1.ethernet.macHeaderInserter flowOutgoingPacketLengths:histogram
field count 0
field mean nan
field stddev nan
field min nan
field max nan
field sum 0
field sqrsum 0
attr interpolationmode none
attr recordingmode histogram
attr source "packetLength(demuxFlow(merge(packetPushedOut, packetPulledOut)))"
attr title "flow specific outgoing packet lengths"
attr unit b
bin	-inf	0
bin	0	0
bin	1	0
scalar simpleTsn.device1.ethernet.macHeaderInserter incomingPackets:count 101
attr recordingmode count
attr source "merge(packetPushedIn, packetPulledIn)"
attr title "incoming packets, count"
attr unit pk
scalar simpleTsn.device1.ethernet.macHeaderInserter incomingPacketLengths:sum 786992
attr interpolationmode none
attr recordingmode sum
attr source "packetLength(merge(packetPushedIn, packetPulledIn))"
attr title "incoming packet lengths, sum"
attr unit b
statistic simpleTsn.device1.ethernet.macHeaderInserter incomingPacketLengths:histogram
field count 101
field mean 7792
field stddev 0
field min 7792
field max 7792
field sum 786992
field sqrsum 6132241664
attr interpolationmode none
attr recordingmode histogram
attr source "packetLength(merge(packetPushedIn, packetPulledIn))"
attr title "incoming packet lengths"
attr unit b
bin	-inf	0
bin	7791	0
bin	7792	101
bin	7793	0
scalar simpleTsn.device1.ethernet.macHeaderInserter flowIncomingPacketLengths:sum 0
attr interpolationmode none
attr recordingmode sum
attr source "packetLength(demuxFlow(merge(packetPushedIn, packetPulledIn)))"
attr title "flow specific incoming packet lengths, sum"
attr unit b
statistic simpleTsn.device1.ethernet.macHeaderInserter flowIncomingPacketLengths:histogram
field count 0
field mean nan
field stddev nan
field min nan
field max nan
field sum 0
field sqrsum 0
attr interpolationmode none
attr recordingmode histogram
attr source "packetLength(demuxFlow(merge(packetPushedIn, packetPulledIn)))"
attr title "flow specific incoming packet lengths"
attr unit b
bin	-inf	0
bin	0	0
bin	1	0
par simpleTsn.device1.ethernet.paddingInserter typename "\"inet.protocolelement.common.PaddingInserter\""
par simpleTsn.device1.ethernet.paddingInserter displayStringTextFormat "\"processed %p pk (%l)\""
par simpleTsn.device1.ethernet.paddingInserter minLength 480b
attr unit b
par simpleTsn.device1.ethernet.paddingInserter roundingLength 8b
attr unit b
par simpleTsn.device1.ethernet.paddingInserter insertionPosition "\"back\""
attr enum front,back
scalar simpleTsn.device1.ethernet.paddingInserter outgoingPackets:count 101
attr recordingmode count
attr source "merge(packetPushedOut, packetPulledOut)"
attr title "outgoing packets, count"
attr unit pk
scalar simpleTsn.device1.ethernet.paddingInserter outgoingPacketLengths:sum 798304
attr interpolationmode none
attr recordingmode sum
attr source "packetLength(merge(packetPushedOut, packetPulledOut))"
attr title "outgoing packet lengths, sum"
attr unit b
statistic simpleTsn.device1.ethernet.paddingInserter outgoingPacketLengths:histogram
field count 101
field mean 7904
field stddev 0
field min 7904
field max 7904
field sum 798304
field sqrsum 6309794816
attr interpolationmode none
attr recordingmode histogram
attr source "packetLength(merge(packetPushedOut, packetPulledOut))"
attr title "outgoing packet lengths"
attr unit b
bin	-inf	0
bin	7903	0
bin	7904	101
bin	7905	0
scalar simpleTsn.device1.ethernet.paddingInserter flowOutgoingPacketLengths:sum 0
attr interpolationmode none
attr recordingmode sum
attr source "packetLength(demuxFlow(merge(packetPushedOut, packetPulledOut)))"
attr title "flow specific outgoing packet lengths, sum"
attr unit b
statistic simpleTsn.device1.ethernet.paddingInserter flowOutgoingPacketLengths:histogram
field count 0
field mean nan
field stddev nan
field min nan
field max nan
field sum 0
field sqrsum 0
attr interpolationmode none
attr recordingmode histogram
attr source "packetLength(demuxFlow(merge(packetPushedOut, packetPulledOut)))"
attr title "flow specific outgoing packet lengths"
attr unit b
bin	-inf	0
bin	0	0
bin	1	0
scalar simpleTsn.device1.ethernet.paddingInserter incomingPackets:count 101
attr recordingmode count
attr source "merge(packetPushedIn, packetPulledIn)"
attr title "incoming packets, count"
attr unit pk
scalar simpleTsn.device1.ethernet.paddingInserter incomingPacketLengths:sum 798304
attr interpolationmode none
attr recordingmode sum
attr source "packetLength(merge(packetPushedIn, packetPulledIn))"
attr title "incoming packet lengths, sum"
attr unit b
statistic simpleTsn.device1.ethernet.paddingInserter incomingPacketLengths:histogram
field count 101
field mean 7904
field stddev 0
field min 7904
field max 7904
field sum 798304
field sqrsum 6309794816
attr interpolationmode none
attr recordingmode histogram
attr source "packetLength(merge(packetPushedIn, packetPulledIn))"
attr title "incoming packet lengths"
attr unit b
bin	-inf	0
bin	7903	0
bin	7904	101
bin	7905	0
scalar simpleTsn.device1.ethernet.paddingInserter flowIncomingPacketLengths:sum 0
attr interpolationmode none
attr recordingmode sum
attr source "packetLength(demuxFlow(merge(packetPushedIn, packetPulledIn)))"
attr title "flow specific incoming packet lengths, sum"
attr unit b
statistic simpleTsn.device1.ethernet.paddingInserter flowIncomingPacketLengths:histogram
field count 0
field mean nan
field stddev nan
field min nan
field max nan
field sum 0
field sqrsum 0
attr interpolationmode none
attr recordingmode histogram
attr source "packetLength(demuxFlow(merge(packetPushedIn, packetPulledIn)))"
attr title "flow specific incoming packet lengths"
attr unit b
bin	-inf	0
bin	0	0
bin	1	0
par simpleTsn.device1.ethernet.fcsInserter typename "\"inet.linklayer.ethernet.modular.EthernetFcsInserter\""
par simpleTsn.device1.ethernet.fcsInserter displayStringTextFormat "\"processed %p pk (%l)\""
par simpleTsn.device1.ethernet.fcsInserter fcsMode "\"declared\""
attr enum disabled,declared,computed
scalar simpleTsn.device1.ethernet.fcsInserter outgoingPackets:count 101
attr recordingmode count
attr source "merge(packetPushedOut, packetPulledOut)"
attr title "outgoing packets, count"
attr unit pk
scalar simpleTsn.device1.ethernet.fcsInserter outgoingPacketLengths:sum 801536
attr interpolationmode none
attr recordingmode sum
attr source "packetLength(merge(packetPushedOut, packetPulledOut))"
attr title "outgoing packet lengths, sum"
attr unit b
statistic simpleTsn.device1.ethernet.fcsInserter outgoingPacketLengths:histogram
field count 101
field mean 7936
field stddev 0
field min 7936
field max 7936
field sum 801536
field sqrsum 6360989696
attr interpolationmode none
attr recordingmode histogram
attr source "packetLength(merge(packetPushedOut, packetPulledOut))"
attr title "outgoing packet lengths"
attr unit b
bin	-inf	0
bin	7935	0
bin	7936	101
bin	7937	0
scalar simpleTsn.device1.ethernet.fcsInserter flowOutgoingPacketLengths:sum 0
attr interpolationmode none
attr recordingmode sum
attr source "packetLength(demuxFlow(merge(packetPushedOut, packetPulledOut)))"
attr title "flow specific outgoing packet lengths, sum"
attr unit b
statistic simpleTsn.device1.ethernet.fcsInserter flowOutgoingPacketLengths:histogram
field count 0
[...]
attr enum declared,computed
attr mutable ""
par simpleTsn.device2.ipv4.icmp quoteLength 8B
attr mutable ""
attr unit B
par simpleTsn.device2.ipv4.mp typename "\"inet.common.MessageDispatcher\""
par simpleTsn.device2.ipv4.mp displayStringTextFormat "\"processed %p pk (%l)\""
par simpleTsn.device2.ipv4.mp forwardServiceRegistration true
par simpleTsn.device2.ipv4.mp forwardProtocolRegistration true
par simpleTsn.device2.ipv4.ip typename "\"inet.networklayer.ipv4.Ipv4\""
par simpleTsn.device2.ipv4.ip interfaceTableModule "\"simpleTsn.device2.interfaceTable\""
par simpleTsn.device2.ipv4.ip routingTableModule "\"simpleTsn.device2.ipv4.routingTable\""
par simpleTsn.device2.ipv4.ip arpModule "\"simpleTsn.device2.ipv4.arp\""
par simpleTsn.device2.ipv4.ip icmpModule "\"simpleTsn.device2.ipv4.icmp\""
par simpleTsn.device2.ipv4.ip crcMode "\"declared\""
attr enum declared,computed
par simpleTsn.device2.ipv4.ip timeToLive 32
par simpleTsn.device2.ipv4.ip multicastTimeToLive 32
par simpleTsn.device2.ipv4.ip fragmentTimeout 60s
attr unit s
par simpleTsn.device2.ipv4.ip limitedBroadcast false
par simpleTsn.device2.ipv4.ip directBroadcastInterfaces "\"\""
scalar simpleTsn.device2.ipv4.ip packetDropAddressResolutionFailed:count 0
attr interpolationmode none
attr recordingmode count
attr source packetDropReasonIsAddressResolutionFailed(packetDropped)
attr title "packet drop: address resolution failed, count"
scalar simpleTsn.device2.ipv4.ip packetDropAddressResolutionFailed:sum(packetBytes) 0
attr interpolationmode none
attr recordingmode sum(packetBytes)
attr source packetDropReasonIsAddressResolutionFailed(packetDropped)
attr title "packet drop: address resolution failed, sum(packetBytes)"
scalar simpleTsn.device2.ipv4.ip packetDropHopLimitReached:count 0
attr interpolationmode none
attr recordingmode count
attr source packetDropReasonIsHopLimitReached(packetDropped)
attr title "packet drop: hop limit reached, count"
scalar simpleTsn.device2.ipv4.ip packetDropHopLimitReached:sum(packetBytes) 0
attr interpolationmode none
attr recordingmode sum(packetBytes)
attr source packetDropReasonIsHopLimitReached(packetDropped)
attr title "packet drop: hop limit reached, sum(packetBytes)"
scalar simpleTsn.device2.ipv4.ip packetDropForwardingDisabled:count 0
attr interpolationmode none
attr recordingmode count
attr source packetDropReasonIsForwardingDisabled(packetDropped)
attr title "packet drop: forwarding disabled, count"
scalar simpleTsn.device2.ipv4.ip packetDropForwardingDisabled:sum(packetBytes) 0
attr interpolationmode none
attr recordingmode sum(packetBytes)
attr source packetDropReasonIsForwardingDisabled(packetDropped)
attr title "packet drop: forwarding disabled, sum(packetBytes)"
scalar simpleTsn.device2.ipv4.ip packetDropNoInterfaceFound:count 0
attr interpolationmode none
attr recordingmode count
attr source packetDropReasonIsNoInterfaceFound(packetDropped)
attr title "packet drop: no interface found, count"
scalar simpleTsn.device2.ipv4.ip packetDropNoInterfaceFound:sum(packetBytes) 0
attr interpolationmode none
attr recordingmode sum(packetBytes)
attr source packetDropReasonIsNoInterfaceFound(packetDropped)
attr title "packet drop: no interface found, sum(packetBytes)"
scalar simpleTsn.device2.ipv4.ip packetDropNoRouteFound:count 0
attr interpolationmode none
attr recordingmode count
attr source packetDropReasonIsNoRouteFound(packetDropped)
attr title "packet drop: no route found, count"
scalar simpleTsn.device2.ipv4.ip packetDropNoRouteFound:sum(packetBytes) 0
attr interpolationmode none
attr recordingmode sum(packetBytes)
attr source packetDropReasonIsNoRouteFound(packetDropped)
attr title "packet drop: no route found, sum(packetBytes)"
scalar simpleTsn.device2.ipv4.ip packetDropUndefined:count 0
attr interpolationmode none
attr recordingmode count
attr source packetDropReasonIsUndefined(packetDropped)
attr title "packet drop: undefined, count"
scalar simpleTsn.device2.ipv4.ip packetDropUndefined:sum(packetBytes) 0
attr interpolationmode none
attr recordingmode sum(packetBytes)
attr source packetDropReasonIsUndefined(packetDropped)
attr title "packet drop: undefined, sum(packetBytes)"
par simpleTsn.device2.ipv4.arp typename "\"inet.networklayer.arp.ipv4.GlobalArp\""
par simpleTsn.device2.ipv4.arp interfaceTableModule "\"simpleTsn.device2.interfaceTable\""
par simpleTsn.device2.ipv4.arp addressType "\"ipv4\""
attr enum ipv4,ipv6,mac,moduleid,modulepath
par simpleTsn.device2.ipv4.lp typename "\"inet.common.MessageDispatcher\""
par simpleTsn.device2.ipv4.lp displayStringTextFormat "\"processed %p pk (%l)\""
par simpleTsn.device2.ipv4.lp forwardServiceRegistration true
par simpleTsn.device2.ipv4.lp forwardProtocolRegistration true
par simpleTsn.device2.ipv4 typename "\"inet.networklayer.ipv4.Ipv4NetworkLayer\""
par simpleTsn.device2.ipv4 forwarding false
par simpleTsn.device2.ipv4 multicastForwarding false
par simpleTsn.device2.ipv4 interfaceTableModule "\"simpleTsn.device2.interfaceTable\""
par simpleTsn.device2.ipv4 displayStringTextFormat "\"%i\""
par simpleTsn.device2.nl typename "\"inet.common.MessageDispatcher\""
par simpleTsn.device2.nl displayStringTextFormat "\"processed %p pk (%l)\""
par simpleTsn.device2.nl forwardServiceRegistration true
par simpleTsn.device2.nl forwardProtocolRegistration true
par simpleTsn.device2.udp typename "\"inet.transportlayer.udp.Udp\""
par simpleTsn.device2.udp interfaceTableModule "\"simpleTsn.device2.interfaceTable\""
par simpleTsn.device2.udp icmpModule "\"^.ipv4.icmp\""
par simpleTsn.device2.udp icmpv6Module "\"^.ipv6.icmpv6\""
par simpleTsn.device2.udp crcMode "\"declared\""
attr enum disabled,declared,computed
par simpleTsn.device2.udp defaultMulticastLoop true
scalar simpleTsn.device2.udp packetReceived:count 101
attr interpolationmode none
attr recordingmode count
attr source packetReceived
attr title "packets received, count"
scalar simpleTsn.device2.udp packetReceived:sum(packetBytes) 96354
attr interpolationmode none
attr recordingmode sum(packetBytes)
attr source packetReceived
attr title "packets received, sum(packetBytes)"
scalar simpleTsn.device2.udp packetSent:count 0
attr interpolationmode none
attr recordingmode count
attr source packetSent
attr title "packets sent, count"
scalar simpleTsn.device2.udp packetSent:sum(packetBytes) 0
attr interpolationmode none
attr recordingmode sum(packetBytes)
attr source packetSent
attr title "packets sent, sum(packetBytes)"
scalar simpleTsn.device2.udp passedUpPk:count 101
attr interpolationmode none
attr recordingmode count
attr source packetSentToUpper
attr title "packets passed up, count"
scalar simpleTsn.device2.udp droppedPkWrongPort:count 0
attr interpolationmode none
attr recordingmode count
attr source packetDropReasonIsNoPortFound(packetDropped)
attr title "packets dropped (wrong port), count"
scalar simpleTsn.device2.udp droppedPkBadChecksum:count 0
attr interpolationmode none
attr recordingmode count
attr source packetDropReasonIsIncorrectlyReceived(packetDropped)
attr title "packets dropped (checksum error), count"
par simpleTsn.device2.tcp typename "\"inet.transportlayer.tcp.Tcp\""
par simpleTsn.device2.tcp crcMode "\"declared\""
attr enum declared,computed
par simpleTsn.device2.tcp advertisedWindow 7504
par simpleTsn.device2.tcp delayedAcksEnabled false
par simpleTsn.device2.tcp nagleEnabled true
par simpleTsn.device2.tcp limitedTransmitEnabled false
par simpleTsn.device2.tcp increasedIWEnabled false
par simpleTsn.device2.tcp sackSupport false
par simpleTsn.device2.tcp windowScalingSupport false
par simpleTsn.device2.tcp windowScalingFactor -1
par simpleTsn.device2.tcp timestampSupport false
par simpleTsn.device2.tcp mss 536
par simpleTsn.device2.tcp msl 120s
attr unit s
par simpleTsn.device2.tcp tcpAlgorithmClass "\"TcpReno\""
attr enum TcpVegas,TcpWestwood,TcpNewReno,TcpReno,TcpTahoe,TcpNoCongestionControl
par simpleTsn.device2.tcp useDataNotification false
par simpleTsn.device2.tcp dupthresh 3
par simpleTsn.device2.tcp initialSsthresh 4294967295
par simpleTsn.device2.tcp stopOperationExtraTime 0s
attr unit s
par simpleTsn.device2.tcp stopOperationTimeout 2s
attr unit s
par simpleTsn.device2.tcp ecnWillingness false
par simpleTsn.device2.tcp dctcpGamma 0.0625
par simpleTsn.device2.tn typename "\"inet.common.MessageDispatcher\""
par simpleTsn.device2.tn displayStringTextFormat "\"processed %p pk (%l)\""
par simpleTsn.device2.tn forwardServiceRegistration true
par simpleTsn.device2.tn forwardProtocolRegistration true
par simpleTsn.device2.app[0].sink typename "\"inet.queueing.sink.PassivePacketSink\""
par simpleTsn.device2.app[0].sink displayStringTextFormat "\"received %p pk (%l)\""
par simpleTsn.device2.app[0].sink clockModule "\"\""
par simpleTsn.device2.app[0].sink initialConsumptionOffset 0s
attr unit s
par simpleTsn.device2.app[0].sink consumptionInterval 0s
attr unit s
par simpleTsn.device2.app[0].sink scheduleForAbsoluteTime true
scalar simpleTsn.device2.app[0].sink packets:count 101
attr recordingmode count
attr source packetPushed
attr title "packets, count"
attr unit pk
scalar simpleTsn.device2.app[0].sink packetLengths:sum 764368
attr interpolationmode none
attr recordingmode sum
attr source packetLength(packetPushed)
attr title "packet lengths, sum"
attr unit b
statistic simpleTsn.device2.app[0].sink packetLengths:histogram
field count 101
field mean 7568
field stddev 0
field min 7568
field max 7568
field sum 764368
field sqrsum 5784737024
attr interpolationmode none
attr recordingmode histogram
attr source packetLength(packetPushed)
attr title "packet lengths"
attr unit b
bin	-inf	0
bin	7567	0
bin	7568	101
bin	7569	0
statistic simpleTsn.device2.app[0].sink meanBitLifeTimePerPacket:histogram
field count 100
field mean 0.00559629370406
field stddev 0.00046497743731982
field min 0.004685338027
field max 0.007063754959
field sum 0.559629370406
field sqrsum 0.0031532545199146
attr interpolationmode none
attr recordingmode histogram
attr source weightedMeanPerGroup(groupRegionsPerPacket(lifeTimePerRegion(packetPushed)))
attr title "mean bit life time per packet"
attr unit s
bin	-inf	0
bin	0.00405	0
bin	0.0041	0
bin	0.00415	0
bin	0.0042	0
bin	0.00425	0
bin	0.0043	0
bin	0.00435	0
bin	0.0044	0
bin	0.00445	0
bin	0.0045	0
bin	0.00455	0
bin	0.0046	0
bin	0.00465	1
bin	0.0047	0
bin	0.00475	0
bin	0.0048	2
bin	0.00485	1
bin	0.0049	2
bin	0.00495	4
bin	0.005	3
bin	0.00505	2
bin	0.0051	1
bin	0.00515	3
bin	0.0052	4
bin	0.00525	6
bin	0.0053	2
bin	0.00535	5
bin	0.0054	5
bin	0.00545	4
bin	0.0055	5
bin	0.00555	6
bin	0.0056	5
bin	0.00565	2
bin	0.0057	4
bin	0.00575	5
bin	0.0058	1
bin	0.00585	3
bin	0.0059	3
bin	0.00595	4
bin	0.006	2
bin	0.00605	1
bin	0.0061	0
bin	0.00615	3
bin	0.0062	1
bin	0.00625	1
bin	0.0063	1
bin	0.00635	1
bin	0.0064	3
bin	0.00645	0
bin	0.0065	1
bin	0.00655	0
bin	0.0066	1
bin	0.00665	0
bin	0.0067	0
bin	0.00675	0
bin	0.0068	1
bin	0.00685	0
bin	0.0069	0
bin	0.00695	0
bin	0.007	0
bin	0.00705	1
bin	0.0071	0
bin	0.00715	0
bin	0.0072	0
bin	0.00725	0
bin	0.0073	0
bin	0.00735	0
bin	0.0074	0
bin	0.00745	0
bin	0.0075	0
bin	0.00755	0
bin	0.0076	0
bin	0.00765	0
bin	0.0077	0
statistic simpleTsn.device2.app[0].sink packetJitter:histogram
field count 100
field mean 5.776913751e-05
field stddev 0.00093605069909337
field min -0.001500564443
field max 0.00680379335
field sum 0.005776913751
field sqrsum 8.7076627540911e-05
attr interpolationmode none
attr recordingmode histogram
attr source jitter(weightedMeanPerGroup(groupRegionsPerPacket(lifeTimePerRegion(packetPushed))))
attr title "packet jitter"
attr unit s
bin	-inf	0
bin	-0.0034	0
bin	-0.0032	0
bin	-0.003	0
bin	-0.0028	0
bin	-0.0026	0
bin	-0.0024	0
bin	-0.0022	0
bin	-0.002	0
bin	-0.0018	0
bin	-0.0016	1
bin	-0.0014	1
bin	-0.0012	2
bin	-0.001	9
bin	-0.0008	8
bin	-0.0006	5
bin	-0.0004	10
bin	-0.0002	15
bin	0	11
bin	0.0002	10
bin	0.0004	10
bin	0.0006	7
bin	0.0008	7
bin	0.001	1
bin	0.0012	0
bin	0.0014	0
bin	0.0016	1
bin	0.0018	1
bin	0.002	0
bin	0.0022	0
bin	0.0024	0
bin	0.0026	0
bin	0.0028	0
bin	0.003	0
bin	0.0032	0
bin	0.0034	0
bin	0.0036	0
bin	0.0038	0
bin	0.004	0
bin	0.0042	0
bin	0.0044	0
bin	0.0046	0
bin	0.0048	0
bin	0.005	0
bin	0.0052	0
bin	0.0054	0
bin	0.0056	0
bin	0.0058	0
bin	0.006	0
bin	0.0062	0
bin	0.0064	0
bin	0.0066	0
bin	0.0068	1
bin	0.007	0
bin	0.0072	0
bin	0.0074	0
bin	0.0076	0
bin	0.0078	0
bin	0.008	0
bin	0.0082	0
bin	0.0084	0
bin	0.0086	0
bin	0.0088	0
bin	0.009	0
statistic simpleTsn.device2.app[0].sink packetDelayDifferenceToMean:histogram
field count 100
field mean 9.4348078917146e-05
field stddev 0.00044231557937552
field min -0.0014650844820845
field max 0.00089800632107407
field sum 0.0094348078917146
field sqrsum 2.0258820103607e-05
attr interpolationmode none
attr recordingmode histogram
attr source differenceToMean(weightedMeanPerGroup(groupRegionsPerPacket(lifeTimePerRegion(packetPushed))))
attr title "packet delay difference to mean"
attr unit s
bin	-inf	0
bin	-0.0021	0
bin	-0.00205	0
bin	-0.002	0
bin	-0.00195	0
bin	-0.0019	0
bin	-0.00185	0
bin	-0.0018	0
bin	-0.00175	0
bin	-0.0017	0
bin	-0.00165	0
bin	-0.0016	0
bin	-0.00155	0
bin	-0.0015	1
bin	-0.00145	0
bin	-0.0014	0
bin	-0.00135	0
bin	-0.0013	0
bin	-0.00125	0
bin	-0.0012	0
bin	-0.00115	0
bin	-0.0011	0
bin	-0.00105	1
bin	-0.001	0
bin	-0.00095	0
bin	-0.0009	0
bin	-0.00085	1
bin	-0.0008	1
bin	-0.00075	0
bin	-0.0007	1
bin	-0.00065	1
bin	-0.0006	2
bin	-0.00055	1
bin	-0.0005	2
bin	-0.00045	1
bin	-0.0004	4
bin	-0.00035	3
bin	-0.0003	2
bin	-0.00025	2
bin	-0.0002	3
bin	-0.00015	4
bin	-0.0001	3
bin	-5e-05	3
bin	0	8
bin	5e-05	4
bin	0.0001	7
bin	0.00015	2
bin	0.0002	3
bin	0.00025	4
bin	0.0003	7
bin	0.00035	3
bin	0.0004	3
bin	0.00045	1
bin	0.0005	4
bin	0.00055	5
bin	0.0006	5
bin	0.00065	1
bin	0.0007	3
bin	0.00075	2
bin	0.0008	0
bin	0.00085	2
bin	0.0009	0
bin	0.00095	0
bin	0.001	0
bin	0.00105	0
bin	0.0011	0
bin	0.00115	0
bin	0.0012	0
bin	0.00125	0
bin	0.0013	0
bin	0.00135	0
bin	0.0014	0
bin	0.00145	0
bin	0.0015	0
statistic simpleTsn.device2.app[0].sink packetDelayVariation:histogram
field count 100
field mean 0.00046751344854637
field stddev 5.4129892098572e-05
field min 0
field max 0.00062965565506374
field sum 0.046751344854637
field sqrsum 2.2146956933813e-05
attr recordingmode histogram
attr source stddev(weightedMeanPerGroup(groupRegionsPerPacket(lifeTimePerRegion(packetPushed))))
attr title "packet delay variation"
attr unit s
bin	-inf	0
bin	0	1
bin	1e-05	0
bin	2e-05	0
bin	3e-05	0
bin	4e-05	0
bin	5e-05	0
bin	6e-05	0
bin	7e-05	0
bin	8e-05	0
bin	9e-05	0
bin	0.0001	0
bin	0.00011	0
bin	0.00012	0
bin	0.00013	0
bin	0.00014	0
bin	0.00015	0
bin	0.00016	0
bin	0.00017	0
bin	0.00018	0
bin	0.00019	0
bin	0.0002	0
bin	0.00021	0
bin	0.00022	0
bin	0.00023	0
bin	0.00024	0
bin	0.00025	0
bin	0.00026	0
bin	0.00027	0
bin	0.00028	0
bin	0.00029	0
bin	0.0003	0
bin	0.00031	0
bin	0.00032	0
bin	0.00033	0
bin	0.00034	0
bin	0.00035	0
bin	0.00036	0
bin	0.00037	0
bin	0.00038	0
bin	0.00039	0
bin	0.0004	0
bin	0.00041	0
bin	0.00042	0
bin	0.00043	3
bin	0.00044	10
bin	0.00045	20
bin	0.00046	17
bin	0.00047	26
bin	0.00048	11
bin	0.00049	3
bin	0.0005	3
bin	0.00051	0
bin	0.00052	2
bin	0.00053	2
bin	0.00054	0
bin	0.00055	0
bin	0.00056	1
bin	0.00057	0
bin	0.00058	0
bin	0.00059	0
bin	0.0006	0
bin	0.00061	0
bin	0.00062	1
bin	0.00063	0
bin	0.00064	0
bin	0.00065	0
bin	0.00066	0
bin	0.00067	0
bin	0.00068	0
bin	0.00069	0
bin	0.0007	0
bin	0.00071	0
bin	0.00072	0
bin	0.00073	0
bin	0.00074	0
bin	0.00075	0
bin	0.00076	0
bin	0.00077	0
bin	0.00078	0
bin	0.00079	0
scalar simpleTsn.device2.app[0].sink droppedPackets:count 101
attr recordingmode count
attr source packetDropped
attr title "dropped packets, count"
attr unit pk
scalar simpleTsn.device2.app[0].sink droppedPacketLengths:sum 764368
attr interpolationmode none
attr recordingmode sum
attr source packetLength(packetDropped)
attr title "dropped packet lengths, sum"
attr unit b
statistic simpleTsn.device2.app[0].sink droppedPacketLengths:histogram
field count 101
field mean 7568
field stddev 0
field min 7568
field max 7568
field sum 764368
field sqrsum 5784737024
attr interpolationmode none
attr recordingmode histogram
attr source packetLength(packetDropped)
attr title "dropped packet lengths"
attr unit b
bin	-inf	0
bin	7567	0
bin	7568	101
bin	7569	0
par simpleTsn.device2.app[0].io typename "\"inet.applications.udpapp.UdpSocketIo\""
par simpleTsn.device2.app[0].io interfaceTableModule "\"simpleTsn.device2.app[0].interfaceTable\""
par simpleTsn.device2.app[0].io localAddress "\"\""
par simpleTsn.device2.app[0].io localPort 1001
par simpleTsn.device2.app[0].io destAddress "\"\""
par simpleTsn.device2.app[0].io destPort -1
par simpleTsn.device2.app[0].io timeToLive -1
par simpleTsn.device2.app[0].io dontFragment false
par simpleTsn.device2.app[0].io dscp -1
par simpleTsn.device2.app[0].io tos -1
par simpleTsn.device2.app[0].io multicastInterface "\"\""
par simpleTsn.device2.app[0].io multicastAddresses []
par simpleTsn.device2.app[0].io receiveBroadcast false
par simpleTsn.device2.app[0].io joinLocalMulticastGroups false
par simpleTsn.device2.app[0].io stopOperationExtraTime -1s
attr unit s
par simpleTsn.device2.app[0].io stopOperationTimeout 2s
attr unit s
scalar simpleTsn.device2.app[0].io "packets sent" 0
scalar simpleTsn.device2.app[0].io "packets received" 101
scalar simpleTsn.device2.app[0].io packetReceived:count 101
attr interpolationmode none
attr recordingmode count
attr source packetReceived
attr title "packets received, count"
scalar simpleTsn.device2.app[0].io packetReceived:sum(packetBytes) 95546
attr interpolationmode none
attr recordingmode sum(packetBytes)
attr source packetReceived
attr title "packets received, sum(packetBytes)"
scalar simpleTsn.device2.app[0].io packetSent:count 0
attr interpolationmode none
attr recordingmode count
attr source packetSent
attr title "packets sent, count"
scalar simpleTsn.device2.app[0].io packetSent:sum(packetBytes) 0
attr interpolationmode none
attr recordingmode sum(packetBytes)
attr source packetSent
attr title "packets sent, sum(packetBytes)"
par simpleTsn.device2.app[0] typename "\"inet.applications.udpapp.SimpleUdpSinkApp\""
par simpleTsn.device2.app[0] interfaceTableModule "\"simpleTsn.device2.interfaceTable\""
par simpleTsn.device2.at typename "\"inet.common.MessageDispatcher\""
par simpleTsn.device2.at displayStringTextFormat "\"processed %p pk (%l)\""
par simpleTsn.device2.at forwardServiceRegistration true
par simpleTsn.device2.at forwardProtocolRegistration true
par simpleTsn.device2 typename "\"inet.node.tsn.TsnDevice\""
par simpleTsn.device2 hasStatus false
par simpleTsn.device2 osgModel "\"\""
par simpleTsn.device2 osgModelColor "\"\""
par simpleTsn.device2 canvasImage "\"\""
par simpleTsn.device2 canvasImageColor "\"\""
par simpleTsn.device2 recordPcap false
par simpleTsn.device2 numPcapRecorders 0
par simpleTsn.device2 numLoInterfaces 1
par simpleTsn.device2 numWlanInterfaces 0
par simpleTsn.device2 numEthInterfaces 0
par simpleTsn.device2 numPppInterfaces 0
par simpleTsn.device2 numTunInterfaces 0
par simpleTsn.device2 numVirtInterfaces 0
par simpleTsn.device2 fcsMode "\"declared\""
attr enum declared,computed
par simpleTsn.device2 hasIpv4 true
par simpleTsn.device2 hasIpv6 false
par simpleTsn.device2 hasGn false
par simpleTsn.device2 forwarding false
par simpleTsn.device2 multicastForwarding false
par simpleTsn.device2 hasUdp true
par simpleTsn.device2 hasTcp true
par simpleTsn.device2 hasSctp false
par simpleTsn.device2 numApps 1
par simpleTsn.device2 hasTimeSynchronization false
par simpleTsn.device2 hasIngressTrafficFiltering false
par simpleTsn.device2 hasEgressTrafficFiltering false
par simpleTsn.device2 hasEgressTrafficShaping true
par simpleTsn.device2 hasStreamRedundancy false
par simpleTsn.device2 hasIncomingStreams true
par simpleTsn.device2 hasOutgoingStreams true
par simpleTsn.device2 hasFramePreemption false
par simpleTsn.device2 hasCutthroughSwitching false
par simpleTsn typename "\"d6g.simulations.simpleTsn.simpleTsn\""
par simpleTsn recordPcap false
par simpleTsn numPcapRecorders 0
par simpleTsn hasGlobalArp true

